version 2
run Wireless11-0-20170407-22:57:38-17403
attr configname Wireless11
attr datetime 20170407-22:57:38
attr experiment Wireless11
attr inifile omnetpp.ini
attr iterationvars ""
attr iterationvars2 $repetition=0
attr measurement ""
attr network WirelessB
attr processid 17403
attr repetition 0
attr replication #0
attr resultdir results
attr runnumber 0
attr seedset 0
param **.constraintAreaMaxX 600m
param **.constraintAreaMaxY 500m
param **.constraintAreaMaxZ 0m
param **.constraintAreaMinX 0m
param **.constraintAreaMinY 0m
param **.constraintAreaMinZ 0m
param **.hostA.pcapRecorder[0].pcapFile "\"results/hostA.pcap\""
param **.hostB.mobility.speed 7mps
param **.hostB.mobilityType "\"RandomWPMobility\""
param **.hostB.pcapRecorder[0].pcapFile "\"results/hostB.pcap\""
param **.host[0].pcapRecorder[0].pcapFile "\"results/host0.pcap\""
param **.host[1].pcapRecorder[0].pcapFile "\"results/host1.pcap\""
param **.host[2].mobility.speed 7mps
param **.host[2].mobilityType "\"RandomWPMobility\""
param **.host[2].pcapRecorder[0].pcapFile "\"results/host2.pcap\""
param **.host[3].mobility.speed 7mps
param **.host[3].mobilityType "\"RandomWPMobility\""
param **.host[3].pcapRecorder[0].pcapFile "\"results/host3.pcap\""
param **.host[4].pcapRecorder[0].pcapFile "\"results/host4.pcap\""
param **.host[5].pcapRecorder[0].pcapFile "\"results/host5.pcap\""
param **.host[6].pcapRecorder[0].pcapFile "\"results/host6.pcap\""
param **.host[7].pcapRecorder[0].pcapFile "\"results/host7.pcap\""
param **.numPcapRecorders 1
param *.configurator.addStaticRoutes false
param *.configurator.config "xml(\"<config><interface hosts='**' address='10.0.0.x' netmask='255.255.255.0'/><autoroute metric='errorRate'/></config>\")"
param *.configurator.optimizeRoutes true
param *.host*.**.bitrate 1Mbps
param *.host*.energyStorageType "\"IdealEnergyStorage\""
param *.host*.forwarding true
param *.host*.networkLayer.arpType "\"GlobalARP\""
param *.host*.routingTable.netmaskRoutes "\"\""
param *.host*.wlan[0].mac.fullDuplex false
param *.host*.wlan[0].mac.maxQueueSize 10
param *.host*.wlan[0].mac.useAck false
param *.host*.wlan[0].radio.bandwidth 2MHz
param *.host*.wlan[0].radio.carrierFrequency 2GHz
param *.host*.wlan[0].radio.displayInterferenceRange false
param *.host*.wlan[0].radio.energyConsumer transmitterIdlePowerConsumption 2mW
param *.host*.wlan[0].radio.energyConsumer.offPowerConsumption 0mW
param *.host*.wlan[0].radio.energyConsumer.receiverBusyPowerConsumption 5mW
param *.host*.wlan[0].radio.energyConsumer.receiverIdlePowerConsumption 2mW
param *.host*.wlan[0].radio.energyConsumer.receiverReceivingPowerConsumption 10mW
param *.host*.wlan[0].radio.energyConsumer.sleepPowerConsumption 1mW
param *.host*.wlan[0].radio.energyConsumer.switchingPowerConsumption 1mW
param *.host*.wlan[0].radio.energyConsumer.transmitterTransmittingPowerConsumption 100mW
param *.host*.wlan[0].radio.energyConsumerType "\"StateBasedEnergyConsumer\""
param *.host*.wlan[0].radio.receiver.energyDetection -85dBm
param *.host*.wlan[0].radio.receiver.ignoreInterference true
param *.host*.wlan[0].radio.receiver.sensitivity -80dBm
param *.host*.wlan[0].radio.receiver.snirThreshold 4dB
param *.host*.wlan[0].radio.transmitter.communicationRange 500m
param *.host*.wlan[0].radio.transmitter.headerBitLength 0b
param *.host*.wlan[0].radio.transmitter.interferenceRange 500m
param *.host*.wlan[0].radio.transmitter.power 1.4mW
param *.host*.wlan[0].radio.transmitter.preambleDuration 10us
param *.host*.wlan[0].radioType "\"APSKScalarRadio\""
param *.host*.wlan[0].typename "\"IdealWirelessNic\""
param *.hostA.numUdpApps 1
param *.hostA.udpApp[0].destAddresses "\"hostB\""
param *.hostA.udpApp[0].destPort 5000
param *.hostA.udpApp[0].messageLength 2000B
param *.hostA.udpApp[0].sendInterval 2s
param *.hostA.udpApp[0].typename "\"UDPBasicApp\""
param *.hostA.wlan[0].radio.displayCommunicationRange true
param *.hostA.wlan[0].radio.displayInterferenceRange true
param *.hostB.numUdpApps 1
param *.hostB.udpApp[0].localPort 5000
param *.hostB.udpApp[0].typename "\"UDPSink\""
param *.hostB.wlan[0].radio.displayCommunicationRange true
param *.hostR1.wlan[0].radio.displayCommunicationRange false
param *.hostType "\"AODVRouter\""
param *.host[0].numUdpApps 1
param *.host[0].udpApp[0].destAddresses "\"host[3]\""
param *.host[0].udpApp[0].destPort 5000
param *.host[0].udpApp[0].messageLength 2000B
param *.host[0].udpApp[0].sendInterval 2s
param *.host[0].udpApp[0].typename "\"UDPBasicApp\""
param *.host[2].numUdpApps 1
param *.host[2].udpApp[0].destAddresses "\"host[5]\""
param *.host[2].udpApp[0].destPort 5000
param *.host[2].udpApp[0].messageLength 2000B
param *.host[2].udpApp[0].sendInterval 2s
param *.host[2].udpApp[0].typename "\"UDPBasicApp\""
param *.host[2].wlan[0].radio.displayCommunicationRange true
param *.host[3].numUdpApps 1
param *.host[3].udpApp[0].localPort 5000
param *.host[3].udpApp[0].typename "\"UDPSink\""
param *.host[3].wlan[0].radio.displayCommunicationRange true
param *.host[5].numUdpApps 1
param *.host[5].udpApp[0].localPort 5000
param *.host[5].udpApp[0].typename "\"UDPSink\""
param *.mediumType "\"APSKScalarRadioMedium\""
param *.numHosts 8
param *.radioMedium.backgroundNoise.power -90dBm
param *.radioMedium.mediumLimitCache.carrierFrequency 2GHz
param *.visualizer.*.statisticVisualizer.color "\"yellow\""
param *.visualizer.*.statisticVisualizer.statisticName "\"throughput\""
param *.visualizer.dataLinkVisualizer.packetNameFilter "\"UDPData*\""
param *.visualizer.mediumVisualizer.displaySignals true
param *.visualizer.mediumVisualizer.signalPropagationUpdateInterval 100ns
param *.visualizer.mobilityVisualizer.displayMovementTrail true
param *.visualizer.networkRouteVisualizer.packetNameFilter "\"UDPData*\""
param *.visualizer.physicalLinkVisualizer.packetNameFilter "\"UDPData*\""
param *.visualizer.sceneVisualizer.descriptionFigure "\"title\""

vector 18  WirelessB.hostA.wlan[0].queue  queueLength:vector  ETV
attr interpolationmode  sample-hold
attr title  "queue length, vector"
vector 0  WirelessB.hostA.energyStorage  powerConsumption:vector  ETV
attr interpolationmode  sample-hold
attr source  powerConsumptionChanged
attr title  "Power consumption, vector"
vector 45  WirelessB.hostB.wlan[0].queue  queueLength:vector  ETV
attr interpolationmode  sample-hold
attr title  "queue length, vector"
vector 28  WirelessB.hostB.energyStorage  powerConsumption:vector  ETV
attr interpolationmode  sample-hold
attr source  powerConsumptionChanged
attr title  "Power consumption, vector"
vector 73  WirelessB.host[0].wlan[0].queue  queueLength:vector  ETV
attr interpolationmode  sample-hold
attr title  "queue length, vector"
vector 55  WirelessB.host[0].energyStorage  powerConsumption:vector  ETV
attr interpolationmode  sample-hold
attr source  powerConsumptionChanged
attr title  "Power consumption, vector"
vector 92  WirelessB.host[1].wlan[0].queue  queueLength:vector  ETV
attr interpolationmode  sample-hold
attr title  "queue length, vector"
vector 83  WirelessB.host[1].energyStorage  powerConsumption:vector  ETV
attr interpolationmode  sample-hold
attr source  powerConsumptionChanged
attr title  "Power consumption, vector"
vector 120  WirelessB.host[2].wlan[0].queue  queueLength:vector  ETV
attr interpolationmode  sample-hold
attr title  "queue length, vector"
vector 102  WirelessB.host[2].energyStorage  powerConsumption:vector  ETV
attr interpolationmode  sample-hold
attr source  powerConsumptionChanged
attr title  "Power consumption, vector"
vector 147  WirelessB.host[3].wlan[0].queue  queueLength:vector  ETV
attr interpolationmode  sample-hold
attr title  "queue length, vector"
vector 130  WirelessB.host[3].energyStorage  powerConsumption:vector  ETV
attr interpolationmode  sample-hold
attr source  powerConsumptionChanged
attr title  "Power consumption, vector"
vector 166  WirelessB.host[4].wlan[0].queue  queueLength:vector  ETV
attr interpolationmode  sample-hold
attr title  "queue length, vector"
vector 157  WirelessB.host[4].energyStorage  powerConsumption:vector  ETV
attr interpolationmode  sample-hold
attr source  powerConsumptionChanged
attr title  "Power consumption, vector"
vector 193  WirelessB.host[5].wlan[0].queue  queueLength:vector  ETV
attr interpolationmode  sample-hold
attr title  "queue length, vector"
vector 176  WirelessB.host[5].energyStorage  powerConsumption:vector  ETV
attr interpolationmode  sample-hold
attr source  powerConsumptionChanged
attr title  "Power consumption, vector"
vector 212  WirelessB.host[6].wlan[0].queue  queueLength:vector  ETV
attr interpolationmode  sample-hold
attr title  "queue length, vector"
vector 203  WirelessB.host[6].energyStorage  powerConsumption:vector  ETV
attr interpolationmode  sample-hold
attr source  powerConsumptionChanged
attr title  "Power consumption, vector"
vector 231  WirelessB.host[7].wlan[0].queue  queueLength:vector  ETV
attr interpolationmode  sample-hold
attr title  "queue length, vector"
vector 222  WirelessB.host[7].energyStorage  powerConsumption:vector  ETV
attr interpolationmode  sample-hold
attr source  powerConsumptionChanged
attr title  "Power consumption, vector"
vector 24  WirelessB.hostA.wlan[0].radio  radioMode:vector  ETV
attr interpolationmode  sample-hold
attr source  radioModeChanged
attr title  "Radio mode, vector"
vector 51  WirelessB.hostB.wlan[0].radio  radioMode:vector  ETV
attr interpolationmode  sample-hold
attr source  radioModeChanged
attr title  "Radio mode, vector"
vector 79  WirelessB.host[0].wlan[0].radio  radioMode:vector  ETV
attr interpolationmode  sample-hold
attr source  radioModeChanged
attr title  "Radio mode, vector"
vector 98  WirelessB.host[1].wlan[0].radio  radioMode:vector  ETV
attr interpolationmode  sample-hold
attr source  radioModeChanged
attr title  "Radio mode, vector"
vector 126  WirelessB.host[2].wlan[0].radio  radioMode:vector  ETV
attr interpolationmode  sample-hold
attr source  radioModeChanged
attr title  "Radio mode, vector"
vector 153  WirelessB.host[3].wlan[0].radio  radioMode:vector  ETV
attr interpolationmode  sample-hold
attr source  radioModeChanged
attr title  "Radio mode, vector"
vector 172  WirelessB.host[4].wlan[0].radio  radioMode:vector  ETV
attr interpolationmode  sample-hold
attr source  radioModeChanged
attr title  "Radio mode, vector"
vector 199  WirelessB.host[5].wlan[0].radio  radioMode:vector  ETV
attr interpolationmode  sample-hold
attr source  radioModeChanged
attr title  "Radio mode, vector"
vector 218  WirelessB.host[6].wlan[0].radio  radioMode:vector  ETV
attr interpolationmode  sample-hold
attr source  radioModeChanged
attr title  "Radio mode, vector"
vector 237  WirelessB.host[7].wlan[0].radio  radioMode:vector  ETV
attr interpolationmode  sample-hold
attr source  radioModeChanged
attr title  "Radio mode, vector"
vector 25  WirelessB.hostA.wlan[0].radio  receptionState:vector  ETV
attr interpolationmode  sample-hold
attr source  receptionStateChanged
attr title  "Radio reception state, vector"
vector 52  WirelessB.hostB.wlan[0].radio  receptionState:vector  ETV
attr interpolationmode  sample-hold
attr source  receptionStateChanged
attr title  "Radio reception state, vector"
vector 80  WirelessB.host[0].wlan[0].radio  receptionState:vector  ETV
attr interpolationmode  sample-hold
attr source  receptionStateChanged
attr title  "Radio reception state, vector"
vector 99  WirelessB.host[1].wlan[0].radio  receptionState:vector  ETV
attr interpolationmode  sample-hold
attr source  receptionStateChanged
attr title  "Radio reception state, vector"
vector 127  WirelessB.host[2].wlan[0].radio  receptionState:vector  ETV
attr interpolationmode  sample-hold
attr source  receptionStateChanged
attr title  "Radio reception state, vector"
vector 154  WirelessB.host[3].wlan[0].radio  receptionState:vector  ETV
attr interpolationmode  sample-hold
attr source  receptionStateChanged
attr title  "Radio reception state, vector"
vector 173  WirelessB.host[4].wlan[0].radio  receptionState:vector  ETV
attr interpolationmode  sample-hold
attr source  receptionStateChanged
attr title  "Radio reception state, vector"
vector 200  WirelessB.host[5].wlan[0].radio  receptionState:vector  ETV
attr interpolationmode  sample-hold
attr source  receptionStateChanged
attr title  "Radio reception state, vector"
vector 219  WirelessB.host[6].wlan[0].radio  receptionState:vector  ETV
attr interpolationmode  sample-hold
attr source  receptionStateChanged
attr title  "Radio reception state, vector"
vector 238  WirelessB.host[7].wlan[0].radio  receptionState:vector  ETV
attr interpolationmode  sample-hold
attr source  receptionStateChanged
attr title  "Radio reception state, vector"
vector 4  WirelessB.hostA.udpApp[0]  sentPk:vector(packetBytes)  ETV
attr interpolationmode  none
attr source  sentPk
attr title  "packets sent, vector(packetBytes)"
vector 59  WirelessB.host[0].udpApp[0]  sentPk:vector(packetBytes)  ETV
attr interpolationmode  none
attr source  sentPk
attr title  "packets sent, vector(packetBytes)"
vector 106  WirelessB.host[2].udpApp[0]  sentPk:vector(packetBytes)  ETV
attr interpolationmode  none
attr source  sentPk
attr title  "packets sent, vector(packetBytes)"
vector 7  WirelessB.hostA.udp  sentPk:vector(packetBytes)  ETV
attr interpolationmode  none
attr source  sentPk
attr title  "packets sent, vector(packetBytes)"
vector 62  WirelessB.host[0].udp  sentPk:vector(packetBytes)  ETV
attr interpolationmode  none
attr source  sentPk
attr title  "packets sent, vector(packetBytes)"
vector 109  WirelessB.host[2].udp  sentPk:vector(packetBytes)  ETV
attr interpolationmode  none
attr source  sentPk
attr title  "packets sent, vector(packetBytes)"
vector 117  WirelessB.host[2].wlan[0].queue  rcvdPk:vector(packetBytes)  ETV
attr interpolationmode  none
attr title  "received packets, vector(packetBytes)"
vector 119  WirelessB.host[2].wlan[0].queue  queueingTime:vector  ETV
attr interpolationmode  none
attr title  "queueing time, vector"
vector 123  WirelessB.host[2].wlan[0].mac  rcvdPkFromHL:vector(packetBytes)  ETV
attr interpolationmode  none
attr source  packetReceivedFromUpper
attr title  "packets received from higher layer, vector(packetBytes)"
vector 104  WirelessB.host[2].energyStorage  residualCapacity:vector  ETV
attr interpolationmode  linear
attr source  residualCapacityChanged
attr title  "Residual capacity, vector"
vector 128  WirelessB.host[2].wlan[0].radio  transmissionState:vector  ETV
attr interpolationmode  sample-hold
attr source  transmissionStateChanged
attr title  "Radio transmission state, vector"
vector 122  WirelessB.host[2].wlan[0].mac  sentDownPk:vector(packetBytes)  ETV
attr interpolationmode  none
attr source  packetSentToLower
attr title  "packets sent to lower layer, vector(packetBytes)"
vector 178  WirelessB.host[5].energyStorage  residualCapacity:vector  ETV
attr interpolationmode  linear
attr source  residualCapacityChanged
attr title  "Residual capacity, vector"
vector 132  WirelessB.host[3].energyStorage  residualCapacity:vector  ETV
attr interpolationmode  linear
attr source  residualCapacityChanged
attr title  "Residual capacity, vector"
vector 30  WirelessB.hostB.energyStorage  residualCapacity:vector  ETV
attr interpolationmode  linear
attr source  residualCapacityChanged
attr title  "Residual capacity, vector"
vector 57  WirelessB.host[0].energyStorage  residualCapacity:vector  ETV
attr interpolationmode  linear
attr source  residualCapacityChanged
attr title  "Residual capacity, vector"
vector 197  WirelessB.host[5].wlan[0].mac  rcvdPkFromLL:vector(packetBytes)  ETV
attr interpolationmode  none
attr source  packetReceivedFromLower
attr title  "packets received from lower layer, vector(packetBytes)"
vector 194  WirelessB.host[5].wlan[0].mac  passedUpPk:vector(packetBytes)  ETV
attr interpolationmode  none
attr source  packetSentToUpper
attr title  "packets passed to higher layer, vector(packetBytes)"
vector 190  WirelessB.host[5].wlan[0].queue  rcvdPk:vector(packetBytes)  ETV
attr interpolationmode  none
attr title  "received packets, vector(packetBytes)"
vector 192  WirelessB.host[5].wlan[0].queue  queueingTime:vector  ETV
attr interpolationmode  none
attr title  "queueing time, vector"
vector 196  WirelessB.host[5].wlan[0].mac  rcvdPkFromHL:vector(packetBytes)  ETV
attr interpolationmode  none
attr source  packetReceivedFromUpper
attr title  "packets received from higher layer, vector(packetBytes)"
vector 201  WirelessB.host[5].wlan[0].radio  transmissionState:vector  ETV
attr interpolationmode  sample-hold
attr source  transmissionStateChanged
attr title  "Radio transmission state, vector"
vector 195  WirelessB.host[5].wlan[0].mac  sentDownPk:vector(packetBytes)  ETV
attr interpolationmode  none
attr source  packetSentToLower
attr title  "packets sent to lower layer, vector(packetBytes)"
vector 70  WirelessB.host[0].wlan[0].queue  rcvdPk:vector(packetBytes)  ETV
attr interpolationmode  none
attr title  "received packets, vector(packetBytes)"
vector 72  WirelessB.host[0].wlan[0].queue  queueingTime:vector  ETV
attr interpolationmode  none
attr title  "queueing time, vector"
vector 76  WirelessB.host[0].wlan[0].mac  rcvdPkFromHL:vector(packetBytes)  ETV
attr interpolationmode  none
attr source  packetReceivedFromUpper
attr title  "packets received from higher layer, vector(packetBytes)"
vector 81  WirelessB.host[0].wlan[0].radio  transmissionState:vector  ETV
attr interpolationmode  sample-hold
attr source  transmissionStateChanged
attr title  "Radio transmission state, vector"
vector 75  WirelessB.host[0].wlan[0].mac  sentDownPk:vector(packetBytes)  ETV
attr interpolationmode  none
attr source  packetSentToLower
attr title  "packets sent to lower layer, vector(packetBytes)"
vector 2  WirelessB.hostA.energyStorage  residualCapacity:vector  ETV
attr interpolationmode  linear
attr source  residualCapacityChanged
attr title  "Residual capacity, vector"
vector 205  WirelessB.host[6].energyStorage  residualCapacity:vector  ETV
attr interpolationmode  linear
attr source  residualCapacityChanged
attr title  "Residual capacity, vector"
vector 224  WirelessB.host[7].energyStorage  residualCapacity:vector  ETV
attr interpolationmode  linear
attr source  residualCapacityChanged
attr title  "Residual capacity, vector"
vector 159  WirelessB.host[4].energyStorage  residualCapacity:vector  ETV
attr interpolationmode  linear
attr source  residualCapacityChanged
attr title  "Residual capacity, vector"
vector 85  WirelessB.host[1].energyStorage  residualCapacity:vector  ETV
attr interpolationmode  linear
attr source  residualCapacityChanged
attr title  "Residual capacity, vector"
vector 124  WirelessB.host[2].wlan[0].mac  rcvdPkFromLL:vector(packetBytes)  ETV
attr interpolationmode  none
attr source  packetReceivedFromLower
attr title  "packets received from lower layer, vector(packetBytes)"
vector 121  WirelessB.host[2].wlan[0].mac  passedUpPk:vector(packetBytes)  ETV
attr interpolationmode  none
attr source  packetSentToUpper
attr title  "packets passed to higher layer, vector(packetBytes)"
vector 151  WirelessB.host[3].wlan[0].mac  rcvdPkFromLL:vector(packetBytes)  ETV
attr interpolationmode  none
attr source  packetReceivedFromLower
attr title  "packets received from lower layer, vector(packetBytes)"
vector 148  WirelessB.host[3].wlan[0].mac  passedUpPk:vector(packetBytes)  ETV
attr interpolationmode  none
attr source  packetSentToUpper
attr title  "packets passed to higher layer, vector(packetBytes)"
vector 144  WirelessB.host[3].wlan[0].queue  rcvdPk:vector(packetBytes)  ETV
attr interpolationmode  none
attr title  "received packets, vector(packetBytes)"
vector 146  WirelessB.host[3].wlan[0].queue  queueingTime:vector  ETV
attr interpolationmode  none
attr title  "queueing time, vector"
vector 150  WirelessB.host[3].wlan[0].mac  rcvdPkFromHL:vector(packetBytes)  ETV
attr interpolationmode  none
attr source  packetReceivedFromUpper
attr title  "packets received from higher layer, vector(packetBytes)"
vector 155  WirelessB.host[3].wlan[0].radio  transmissionState:vector  ETV
attr interpolationmode  sample-hold
attr source  transmissionStateChanged
attr title  "Radio transmission state, vector"
vector 149  WirelessB.host[3].wlan[0].mac  sentDownPk:vector(packetBytes)  ETV
attr interpolationmode  none
attr source  packetSentToLower
attr title  "packets sent to lower layer, vector(packetBytes)"
vector 22  WirelessB.hostA.wlan[0].mac  rcvdPkFromLL:vector(packetBytes)  ETV
attr interpolationmode  none
attr source  packetReceivedFromLower
attr title  "packets received from lower layer, vector(packetBytes)"
vector 19  WirelessB.hostA.wlan[0].mac  passedUpPk:vector(packetBytes)  ETV
attr interpolationmode  none
attr source  packetSentToUpper
attr title  "packets passed to higher layer, vector(packetBytes)"
vector 49  WirelessB.hostB.wlan[0].mac  rcvdPkFromLL:vector(packetBytes)  ETV
attr interpolationmode  none
attr source  packetReceivedFromLower
attr title  "packets received from lower layer, vector(packetBytes)"
vector 46  WirelessB.hostB.wlan[0].mac  passedUpPk:vector(packetBytes)  ETV
attr interpolationmode  none
attr source  packetSentToUpper
attr title  "packets passed to higher layer, vector(packetBytes)"
vector 77  WirelessB.host[0].wlan[0].mac  rcvdPkFromLL:vector(packetBytes)  ETV
attr interpolationmode  none
attr source  packetReceivedFromLower
attr title  "packets received from lower layer, vector(packetBytes)"
vector 74  WirelessB.host[0].wlan[0].mac  passedUpPk:vector(packetBytes)  ETV
attr interpolationmode  none
attr source  packetSentToUpper
attr title  "packets passed to higher layer, vector(packetBytes)"
vector 50  WirelessB.hostB.wlan[0].mac  droppedPkNotForUs:vector(packetBytes)  ETV
attr interpolationmode  none
attr source  dropPkNotForUs
attr title  "packets dropped/not for us, vector(packetBytes)"
vector 23  WirelessB.hostA.wlan[0].mac  droppedPkNotForUs:vector(packetBytes)  ETV
attr interpolationmode  none
attr source  dropPkNotForUs
attr title  "packets dropped/not for us, vector(packetBytes)"
vector 15  WirelessB.hostA.wlan[0].queue  rcvdPk:vector(packetBytes)  ETV
attr interpolationmode  none
attr title  "received packets, vector(packetBytes)"
vector 17  WirelessB.hostA.wlan[0].queue  queueingTime:vector  ETV
attr interpolationmode  none
attr title  "queueing time, vector"
vector 21  WirelessB.hostA.wlan[0].mac  rcvdPkFromHL:vector(packetBytes)  ETV
attr interpolationmode  none
attr source  packetReceivedFromUpper
attr title  "packets received from higher layer, vector(packetBytes)"
vector 26  WirelessB.hostA.wlan[0].radio  transmissionState:vector  ETV
attr interpolationmode  sample-hold
attr source  transmissionStateChanged
attr title  "Radio transmission state, vector"
vector 20  WirelessB.hostA.wlan[0].mac  sentDownPk:vector(packetBytes)  ETV
attr interpolationmode  none
attr source  packetSentToLower
attr title  "packets sent to lower layer, vector(packetBytes)"
vector 42  WirelessB.hostB.wlan[0].queue  rcvdPk:vector(packetBytes)  ETV
attr interpolationmode  none
attr title  "received packets, vector(packetBytes)"
vector 44  WirelessB.hostB.wlan[0].queue  queueingTime:vector  ETV
attr interpolationmode  none
attr title  "queueing time, vector"
vector 48  WirelessB.hostB.wlan[0].mac  rcvdPkFromHL:vector(packetBytes)  ETV
attr interpolationmode  none
attr source  packetReceivedFromUpper
attr title  "packets received from higher layer, vector(packetBytes)"
vector 53  WirelessB.hostB.wlan[0].radio  transmissionState:vector  ETV
attr interpolationmode  sample-hold
attr source  transmissionStateChanged
attr title  "Radio transmission state, vector"
vector 47  WirelessB.hostB.wlan[0].mac  sentDownPk:vector(packetBytes)  ETV
attr interpolationmode  none
attr source  packetSentToLower
attr title  "packets sent to lower layer, vector(packetBytes)"
vector 152  WirelessB.host[3].wlan[0].mac  droppedPkNotForUs:vector(packetBytes)  ETV
attr interpolationmode  none
attr source  dropPkNotForUs
attr title  "packets dropped/not for us, vector(packetBytes)"
vector 78  WirelessB.host[0].wlan[0].mac  droppedPkNotForUs:vector(packetBytes)  ETV
attr interpolationmode  none
attr source  dropPkNotForUs
attr title  "packets dropped/not for us, vector(packetBytes)"
vector 35  WirelessB.hostB.udp  rcvdPk:vector(packetBytes)  ETV
attr interpolationmode  none
attr source  rcvdPk
attr title  "packets received, vector(packetBytes)"
vector 36  WirelessB.hostB.udp  passedUpPk:vector(count)  ETV
attr interpolationmode  none
attr title  "packets passed up, vector(count)"
vector 31  WirelessB.hostB.udpApp[0]  rcvdPk:vector(packetBytes)  ETV
attr interpolationmode  none
attr source  rcvdPk
attr title  "packets received, vector(packetBytes)"
vector 32  WirelessB.hostB.udpApp[0]  endToEndDelay:vector  ETV
attr interpolationmode  none
attr source  messageAge(rcvdPk)
attr title  "end-to-end delay, vector"
attr unit  s
vector 33  WirelessB.hostB.udpApp[0]  rcvdPkSeqNo:vector  ETV
attr interpolationmode  none
attr source  appPkSeqNo(rcvdPk)
attr title  "received packet sequence number, vector"
vector 183  WirelessB.host[5].udp  rcvdPk:vector(packetBytes)  ETV
attr interpolationmode  none
attr source  rcvdPk
attr title  "packets received, vector(packetBytes)"
vector 184  WirelessB.host[5].udp  passedUpPk:vector(count)  ETV
attr interpolationmode  none
attr title  "packets passed up, vector(count)"
vector 179  WirelessB.host[5].udpApp[0]  rcvdPk:vector(packetBytes)  ETV
attr interpolationmode  none
attr source  rcvdPk
attr title  "packets received, vector(packetBytes)"
vector 180  WirelessB.host[5].udpApp[0]  endToEndDelay:vector  ETV
attr interpolationmode  none
attr source  messageAge(rcvdPk)
attr title  "end-to-end delay, vector"
attr unit  s
vector 181  WirelessB.host[5].udpApp[0]  rcvdPkSeqNo:vector  ETV
attr interpolationmode  none
attr source  appPkSeqNo(rcvdPk)
attr title  "received packet sequence number, vector"
vector 137  WirelessB.host[3].udp  rcvdPk:vector(packetBytes)  ETV
attr interpolationmode  none
attr source  rcvdPk
attr title  "packets received, vector(packetBytes)"
vector 138  WirelessB.host[3].udp  passedUpPk:vector(count)  ETV
attr interpolationmode  none
attr title  "packets passed up, vector(count)"
vector 133  WirelessB.host[3].udpApp[0]  rcvdPk:vector(packetBytes)  ETV
attr interpolationmode  none
attr source  rcvdPk
attr title  "packets received, vector(packetBytes)"
vector 134  WirelessB.host[3].udpApp[0]  endToEndDelay:vector  ETV
attr interpolationmode  none
attr source  messageAge(rcvdPk)
attr title  "end-to-end delay, vector"
attr unit  s
vector 135  WirelessB.host[3].udpApp[0]  rcvdPkSeqNo:vector  ETV
attr interpolationmode  none
attr source  appPkSeqNo(rcvdPk)
attr title  "received packet sequence number, vector"
vector 216  WirelessB.host[6].wlan[0].mac  rcvdPkFromLL:vector(packetBytes)  ETV
attr interpolationmode  none
attr source  packetReceivedFromLower
attr title  "packets received from lower layer, vector(packetBytes)"
vector 213  WirelessB.host[6].wlan[0].mac  passedUpPk:vector(packetBytes)  ETV
attr interpolationmode  none
attr source  packetSentToUpper
attr title  "packets passed to higher layer, vector(packetBytes)"
vector 209  WirelessB.host[6].wlan[0].queue  rcvdPk:vector(packetBytes)  ETV
attr interpolationmode  none
attr title  "received packets, vector(packetBytes)"
vector 211  WirelessB.host[6].wlan[0].queue  queueingTime:vector  ETV
attr interpolationmode  none
attr title  "queueing time, vector"
vector 215  WirelessB.host[6].wlan[0].mac  rcvdPkFromHL:vector(packetBytes)  ETV
attr interpolationmode  none
attr source  packetReceivedFromUpper
attr title  "packets received from higher layer, vector(packetBytes)"
vector 220  WirelessB.host[6].wlan[0].radio  transmissionState:vector  ETV
attr interpolationmode  sample-hold
attr source  transmissionStateChanged
attr title  "Radio transmission state, vector"
vector 214  WirelessB.host[6].wlan[0].mac  sentDownPk:vector(packetBytes)  ETV
attr interpolationmode  none
attr source  packetSentToLower
attr title  "packets sent to lower layer, vector(packetBytes)"
vector 217  WirelessB.host[6].wlan[0].mac  droppedPkNotForUs:vector(packetBytes)  ETV
attr interpolationmode  none
attr source  dropPkNotForUs
attr title  "packets dropped/not for us, vector(packetBytes)"
vector 125  WirelessB.host[2].wlan[0].mac  droppedPkNotForUs:vector(packetBytes)  ETV
attr interpolationmode  none
attr source  dropPkNotForUs
attr title  "packets dropped/not for us, vector(packetBytes)"
vector 235  WirelessB.host[7].wlan[0].mac  rcvdPkFromLL:vector(packetBytes)  ETV
attr interpolationmode  none
attr source  packetReceivedFromLower
attr title  "packets received from lower layer, vector(packetBytes)"
0	0	0	0
2	182	2.000676485075	-0.00400135297015
2	224	2.001102485075	-0.00400561297015
2	234	2.001102806798	-0.004005613613596
2	257	2.001496806798	-0.004009553613596
2	260	2.001497033926	-0.004009554067852
2	276	2.002842169742	-0.004023005426012
2	287	2.003268169742	-0.004065605426012
2	301	2.004187488574	-0.004070202020172
2	311	2.004613488574	-0.004074462020172
2	338	2.017731033926	-0.004140049746932
2	373	2.103294573436	-0.004311176825952
2	399	2.103688573436	-0.004315116825952
2	424	2.320496401758	-0.004748732482596
2	435	2.320922401758	-0.004791332482596
2	453	2.320922961118	-0.004791333601316
2	468	2.321316961118	-0.004795273601316
2	543	2.337550961118	-0.006418673601316
2	562	2.422171509049	-0.006587914697178
2	573	2.422565509049	-0.006627314697178
2	688	4.001818948076	-0.009785821575232
2	714	4.002244948076	-0.009790081575232
2	730	4.003039153334	-0.009791669985748
2	741	4.003465153334	-0.009834269985748
2	766	4.006729912974	-0.009840799505028
2	786	4.007155912974	-0.009845059505028
2	790	4.007156033126	-0.009845059745332
2	806	4.007550033126	-0.009848999745332
2	825	4.008260688098	-0.009850421055276
2	838	4.008686688098	-0.009854681055276
2	858	4.010725774348	-0.009858759227776
2	870	4.011119774348	-0.009862699227776
2	899	4.027353774348	-0.011486099227776
2	914	4.027354581871	-0.011486100842822
2	934	4.043588581871	-0.011648440842822
2	985	4.322373881735	-0.01220601144255
2	998	4.322799881735	-0.01221027144255
2	1062	4.801690432297	-0.013168052543674
2	1075	4.802116432297	-0.013172312543674
2	1093	4.802807581688	-0.013173694842456
2	1103	4.803233581688	-0.013177954842456
2	1121	4.803234028622	-0.013177955736324
2	1141	4.803628028622	-0.013181895736324
2	1153	4.80461105242	-0.01318386178392
2	1163	4.80500505242	-0.01318780178392
2	1177	4.805005631065	-0.01318780294121
2	1191	4.805398080257	-0.01319172743313
2	1202	4.805824080257	-0.01323432743313
2	1220	4.821239631065	-0.01331140518717
2	1239	4.90911059722	-0.01348714711948
2	1252	4.90956859722	-0.01349172711948
2	1358	6	-0.01567258992504
2	1392	6.016234	-0.01729598992504
2	1424	6.324391361552	-0.017912304648144
2	1440	6.324817361552	-0.017916564648144
2	1452	6.325095935017	-0.017917121795074
2	1463	6.325521935017	-0.017959721795074
2	1484	6.325522661674	-0.017959723248388
2	1500	6.325916661674	-0.017963663248388
2	1512	6.326016600036	-0.017963863125112
2	1523	6.326410600036	-0.018003263125112
2	1539	6.326411388454	-0.018003264701948
2	1581	6.342645388454	-0.018165604701948
2	1600	6.427825423251	-0.018335964771542
2	1616	6.428283423251	-0.018340544771542
2	1710	8	-0.02148397792504
2	1744	8.016234	-0.02310737792504
2	1776	8.321590310075	-0.02371809054519
2	1797	8.322016310075	-0.02372235054519
2	1802	8.322016404731	-0.023722350734502
2	1817	8.32233704758	-0.023725557162992
2	1854	8.32276304758	-0.023768157162992
2	1868	8.324087747978	-0.023774780664982
2	1878	8.324513747978	-0.023779040664982
2	1897	8.338644624967	-0.023849695049927
2	2010	8.426736137787	-0.024025878075567
2	2026	8.427130137787	-0.024029818075567
2	2160	10	-0.027175557799993
2	2205	10.016234	-0.028798957799993
2	2252	10.321388987029	-0.029409267774051
2	2268	10.321814987029	-0.029413527774051
2	2282	10.321861838298	-0.029413621476589
2	2292	10.322287838298	-0.029417881476589
2	2310	10.322288296606	-0.029417882393205
2	2330	10.322682296606	-0.029421822393205
2	2342	10.325918212025	-0.029428294224043
2	2353	10.326026697425	-0.029429379078043
2	2376	10.326452697425	-0.029471979078043
2	2399	10.429499845739	-0.029678073374671
2	2409	10.429893845739	-0.029682013374671
2	2427	10.429894304485	-0.029682014292163
2	2449	10.430288304485	-0.029685954292163
2	2480	10.801447424664	-0.030428272532521
2	2500	10.801873424664	-0.030432532532521
2	2504	10.8018734803	-0.030432532643793
2	2520	10.8022674803	-0.030436472643793
2	2535	10.802268152227	-0.030436473987647
2	2548	10.803862528422	-0.030452417749597
2	2559	10.804288528422	-0.030495017749597
2	2576	10.818502152227	-0.030566085868622
2	2595	10.90236868998	-0.030733818944128
2	2611	10.90282668998	-0.030738398944128
2	2687	12	-0.032932745564168
2	2732	12.016234	-0.034556145564168
2	2779	12.321350434052	-0.035166378432272
2	2795	12.321776434052	-0.035170638432272
2	2807	12.323218816214	-0.035173523196596
2	2818	12.323644816214	-0.035216123196596
2	2838	12.323645376538	-0.035216124317244
2	2855	12.324039376538	-0.035220064317244
2	2867	12.325283142237	-0.035222551848642
2	2878	12.325677142237	-0.035261951848642
2	2894	12.325677930655	-0.035261953425478
2	2936	12.341911930655	-0.035424293425478
2	2955	12.427658422046	-0.03559578640826
2	2971	12.428116422046	-0.03560036640826
2	3063	14	-0.038744133564168
2	3108	14.016234	-0.040367533564168
2	3130	14.016234991918	-0.040367538523758
2	3156	14.32423243754	-0.040983533415002
2	3178	14.32465843754	-0.040987793415002
2	3182	14.324658437633	-0.040987793415188
2	3206	14.325052437633	-0.040991733415188
2	3209	14.325052699409	-0.04099173393874
2	3224	14.32523944709	-0.04099360141555
2	3235	14.32566544709	-0.04103620141555
2	3252	14.341286699409	-0.041114307677145
2	3272	14.428887817922	-0.041289509914171
2	3288	14.429281817922	-0.041293449914171
2	3380	16	-0.044434886278327
2	3425	16.016234	-0.046058286278327
2	3446	16.016234961318	-0.046058291084917
2	3472	16.32156648587	-0.046668954134021
2	3488	16.32199248587	-0.046673214134021
2	3501	16.325455143828	-0.046680139449937
2	3512	16.325881143828	-0.046722739449937
2	3531	16.325881652171	-0.046722740466623
2	3549	16.326275652171	-0.046726680466623
2	3563	16.328823586987	-0.046731776336255
2	3573	16.329249586987	-0.046736036336255
2	3593	16.329573994242	-0.046736685150765
2	3604	16.329967994242	-0.046776085150765
2	3620	16.32996878266	-0.046776086727601
2	3641	16.34620278266	-0.046938426727601
2	3663	16.36243678266	-0.048561826727601
2	3765	18	-0.051836953162281
2	3798	18.016234	-0.053460353162281
2	3824	18.016234932137	-0.053460357822966
2	3850	18.100096360212	-0.053628080679116
2	3866	18.100554360212	-0.053632660679116
2	3973	20	-0.057431551958692
2	4018	20.016234	-0.059054951958692
2	4037	20.016234904427	-0.059054956480827
2	4064	20.323746243389	-0.059669979158751
2	4081	20.324172243389	-0.059674239158751
2	4091	20.324172331087	-0.059674239334147
2	4114	20.324566331087	-0.059678179334147
2	4117	20.324566685025	-0.059678180042023
2	4156	20.328564504345	-0.059718158235223
2	4167	20.328990504345	-0.059760758235223
2	4185	20.340800685025	-0.059819809138623
2	4204	20.425028554458	-0.059988264877489
2	4217	20.425422554458	-0.059992204877489
2	4312	22	-0.063141359768573
2	4357	22.016234	-0.064764759768573
2	4376	22.016234878327	-0.064764764160208
2	4403	22.323260910581	-0.065378816224716
2	4416	22.323686910581	-0.065383076224716
2	4432	22.325844002753	-0.06538739040906
2	4443	22.326270002753	-0.06542999040906
2	4463	22.326270555941	-0.065429991515436
2	4481	22.326664555941	-0.065433931515436
2	4496	22.328169864527	-0.065436942132608
2	4506	22.328502365299	-0.065440267140328
2	4530	22.328896365299	-0.065479667140328
2	4551	22.428988664932	-0.065679851739594
2	4562	22.429382664932	-0.065719251739594
2	4582	22.429383220096	-0.065719252849922
2	4603	22.429777220096	-0.065723192849922
2	4633	22.804920605386	-0.066473479620502
2	4646	22.805346605386	-0.066477739620502
2	4673	22.805740605386	-0.066517139620502
2	4688	22.805741393804	-0.066517141197338
2	4755	22.821975393804	-0.066679481197338
2	4775	22.906242528237	-0.066848015466204
2	4788	22.906700528237	-0.066852595466204
2	4868	24	-0.06903919440973
2	4913	24.016234	-0.07066259440973
2	4926	24.016234853985	-0.070662598679655
2	4949	24.104341483069	-0.070838811937823
2	4958	24.104523238721	-0.070839720716083
2	4982	24.104917238721	-0.070879120716083
2	5015	24.320834631799	-0.071310955502239
2	5028	24.321260631799	-0.071315215502239
2	5047	24.325500966145	-0.071323696170931
2	5064	24.325926966145	-0.071327956170931
2	5077	24.325927207871	-0.071327956654383
2	5095	24.326321207871	-0.071331896654383
2	5110	24.327021191614	-0.071333296621869
2	5121	24.327415191614	-0.071337236621869
2	5134	24.327415796918	-0.071337237832477
2	5171	24.330251632609	-0.071365596189387
2	5182	24.330677632609	-0.071408196189387
2	5199	24.343649796918	-0.071473057010932
2	5218	24.427761631869	-0.071641280680834
2	5231	24.428219631869	-0.071645860680834
2	5327	26	-0.074789421417096
2	5425	26.016234	-0.076412821417096
2	5441	26.017308647685	-0.076418194655521
2	5457	26.100083139847	-0.076583743639845
2	5468	26.100541139847	-0.076629543639845
2	5494	26.102228358312	-0.076632918076775
2	5507	26.102622358312	-0.076634888076775
2	5528	26.323824952699	-0.077077293265549
2	5545	26.324250952699	-0.077081553265549
2	5551	26.324251230294	-0.077081553820739
2	5568	26.324645230294	-0.077085493820739
2	5579	26.324645644461	-0.077085494649073
2	5600	26.340879644461	-0.077247834649073
2	5698	28.000000394209	-0.080566076148569
2	5708	28.00169701908	-0.080583042397279
2	5719	28.00212301908	-0.080625642397279
2	5756	28.016234394209	-0.080696199272924
2	5774	28.102448138919	-0.080868626762344
2	5787	28.102842138919	-0.080872566762344
2	5813	28.320898259472	-0.08130867900345
2	5822	28.320999982627	-0.081309187619225
2	5843	28.321425982627	-0.081351787619225
2	5862	28.321426644359	-0.081351788942689
2	5878	28.321820644359	-0.081355728942689
2	5953	28.338054644359	-0.082979128942689
2	5972	28.423547402752	-0.083150114459475
2	5983	28.423941402752	-0.083189514459475
2	6023	28.804641210088	-0.083950914074147
2	6033	28.805067210088	-0.083953044074147
2	6078	29.44304206222	-0.085228993778411
2	6088	29.44346806222	-0.085231123778411
2	6138	30.000823864991	-0.086345835383953
2	6148	30.001249864991	-0.086350095383953
2	6165	30.00391822124	-0.086355432096451
2	6176	30.00434422124	-0.086398032096451
2	6197	30.004357257025	-0.086398058168021
2	6208	30.004783257025	-0.086440658168021
2	6228	30.00478402903	-0.086440659712031
2	6243	30.00517802903	-0.086444599712031
2	6260	30.005534457325	-0.086445312568621
2	6278	30.005960457325	-0.086449572568621
2	6286	30.005960594515	-0.086449572843001
2	6305	30.006354594515	-0.086453512843001
2	6319	30.009016079667	-0.086458835813305
2	6329	30.009442079667	-0.086463095813305
2	6346	30.009499436242	-0.086463210526455
2	6357	30.009893436242	-0.086502610526455
2	6371	30.00989422466	-0.086502612103291
2	6417	30.02612822466	-0.086664952103291
2	6438	30.114025082074	-0.086840745818119
2	6456	30.114483082074	-0.086845325818119
2	6464	30.114483219336	-0.086845326092643
2	6496	30.114877219336	-0.086849266092643
2	6509	30.115074086603	-0.086850250428978
2	6530	30.321137073146	-0.087262376402064
2	6541	30.321563073146	-0.087304976402064
2	6564	30.321845953237	-0.087305542162246
2	6587	30.322271953237	-0.087309802162246
2	6607	30.322416334236	-0.087310524067241
2	6609	30.322416471618	-0.087310524342005
2	6628	30.322810471618	-0.087314464342005
2	6643	30.325249826063	-0.087319343050895
2	6654	30.325643826063	-0.087323283050895
2	6683	30.341877826063	-0.088946683050895
2	6697	30.341878609754	-0.088946684618277
2	6716	30.358112609754	-0.089109024618277
2	6810	32	-0.092392799398769
2	6844	32.016234	-0.094016199398769
2	6863	32.102392981632	-0.094188517362033
2	6874	32.102850981632	-0.094234317362033
2	6905	32.323035619514	-0.094674686637797
2	6915	32.323461619514	-0.094678946637797
2	6929	32.327035104178	-0.094686093607125
2	6940	32.327461104178	-0.094728693607125
2	6961	32.327461961128	-0.094728695321025
2	6975	32.327855961128	-0.094732635321025
2	6988	32.331171352146	-0.094739266103061
2	6999	32.331565352146	-0.094778666103061
2	7014	32.331566140564	-0.094778667679897
2	7031	32.347800140564	-0.094941007679897
2	7055	32.364034140564	-0.096564407679897
2	7083	32.401600860188	-0.096639541119145
2	7093	32.402026860188	-0.096641671119145
2	7182	34.000000394209	-0.099837618187187
2	7193	34.002941585587	-0.099867030100967
2	7204	34.003367585587	-0.099909630100967
2	7217	34.016234394209	-0.099973964144077
2	7235	34.101623809072	-0.1001447429738
2	7245	34.102081809072	-0.1001493229738
2	7267	34.322598555961	-0.10059035646758
2	7278	34.323024555961	-0.10063295646758
2	7305	34.323025497021	-0.1006329583497
2	7328	34.323419497021	-0.1006368983497
2	7337	34.323451621131	-0.10063705897025
2	7351	34.324584790927	-0.10063932530984
2	7364	34.325010790927	-0.10064358530984
2	7390	34.423953679088	-0.10084147108616
2	7406	34.424347679088	-0.10084344108616
2	7429	34.802417043088	-0.10159957981416
2	7440	34.802843043088	-0.10164217981416
2	7457	34.806787528613	-0.10165006878521
2	7467	34.807213528613	-0.10165432878521
2	7515	35.361147965789	-0.10276219765957
2	7525	35.361573965789	-0.10276432765957
2	7538	35.443654279013	-0.10292848828601
2	7549	35.444080279013	-0.10297108828601
2	7570	35.445147756725	-0.10297322324144
2	7601	35.445573756725	-0.10297748324144
2	7635	35.445967933775	-0.10297945412669
2	7647	35.44855903874	-0.10298463633662
2	7658	35.44895303874	-0.10298857633662
2	7686	35.46518703874	-0.10461197633662
2	7701	35.465187955997	-0.10461197817113
2	7719	35.481421955997	-0.10477431817113
2	7765	36	-0.10581147425914
2	7799	36.016234	-0.10743487425914
2	7817	36.100932291093	-0.10760427084132
2	7828	36.101390291093	-0.10765007084132
2	7856	36.324319672215	-0.10809592960357
2	7866	36.324745672215	-0.10810018960357
2	7880	36.325333331502	-0.10810136492214
2	7891	36.325759331502	-0.10814396492214
2	7909	36.32576020893	-0.108143966677
2	7923	36.32615420893	-0.108147906677
2	7936	36.326814549478	-0.10814922735809
2	7947	36.327208549478	-0.10818862735809
2	7961	36.327209337896	-0.10818862893493
2	7979	36.343443337896	-0.10835096893493
2	8004	36.359677337896	-0.10997436893493
2	8101	38.000000394209	-0.11325501504756
2	8112	38.001024328808	-0.11326525439355
2	8123	38.001450328808	-0.11330785439355
2	8136	38.016234394209	-0.11338177472055
2	8154	38.100724633022	-0.11355075519818
2	8164	38.101182633022	-0.11355533519818
2	8187	38.322440281423	-0.11399785049498
2	8198	38.322866281423	-0.11404045049498
2	8222	38.32464513118	-0.11404400819449
2	8240	38.32507113118	-0.11404826819449
2	8250	38.325071295393	-0.11404826852292
2	8269	38.325465295393	-0.11405220852292
2	8281	38.327569229599	-0.11405641639133
2	8291	38.327995229599	-0.11406067639133
2	8311	38.329208684887	-0.11406310330191
2	8322	38.329602684887	-0.11406704330191
2	8352	38.345836684887	-0.11569044330191
2	8367	38.345837470321	-0.11569044487278
2	8386	38.362071470321	-0.11585278487278
2	8479	40	-0.11912864193213
2	8501	40.016234	-0.12075204193213
2	8506	40.016234394209	-0.12075204390318
2	8534	40.100501863932	-0.12092057884262
2	8544	40.100895863932	-0.12092451884262
2	8561	40.103386316533	-0.12092949974783
2	8572	40.103844316533	-0.12097529974783
2	8690	42.002932445059	-0.12477347600488
2	8700	42.003358445059	-0.12477773600488
2	8714	42.003358768009	-0.12477773665078
2	8730	42.003517473927	-0.12477932370996
2	8755	42.003943473927	-0.12482192370996
2	8776	42.004369473927	-0.12486452370996
2	8805	42.10824624133	-0.12507227724476
2	8818	42.10864024133	-0.12507621724477
2	8845	42.32303277152	-0.12550500230514
2	8855	42.32345877152	-0.12550926230515
2	8872	42.324382526212	-0.12551110981453
2	8885	42.324808526212	-0.12555370981453
2	8911	42.325234526212	-0.12559630981453
2	8929	42.325967822758	-0.12559777640762
2	8939	42.326393822758	-0.12560203640762
2	8980	42.803578199971	-0.12655640516205
2	8990	42.804004199971	-0.12656066516205
2	9007	42.804706888525	-0.12656207053916
2	9018	42.805132888525	-0.12660467053916
2	9037	42.805133580909	-0.12660467192392
2	9053	42.805527580909	-0.12660861192392
2	9129	42.821761580909	-0.12823201192392
2	9146	42.905527580909	-0.12839954392392
2	9157	42.905953580909	-0.12844214392392
2	9176	42.905954159858	-0.12844214508182
2	9192	42.906348159858	-0.12844608508182
2	9206	42.907319870956	-0.12844802850402
2	9217	42.907713870956	-0.12848742850402
2	9233	42.907714659374	-0.12848743008085
2	9246	42.909750331298	-0.12850778680009
2	9257	42.910144331298	-0.12854718680009
2	9274	42.923948659374	-0.12861620844047
2	9302	43.007780843658	-0.12878387280904
2	9315	43.008238843658	-0.12878845280904
2	9379	44.004909146935	-0.1307817934156
2	9403	44.005335146935	-0.1308243934156
2	9417	44.005351555611	-0.13082447545898
2	9440	44.322391851533	-0.13145855605082
2	9451	44.322817851533	-0.13150115605082
2	9475	44.323768242232	-0.13150305683222
2	9488	44.324194242232	-0.13150731683222
2	9507	44.325305324351	-0.13150953899646
2	9526	44.325731324351	-0.13151379899646
2	9534	44.325731463955	-0.13151379927566
2	9566	44.326125463955	-0.13151773927566
2	9578	44.326246702939	-0.13151834547058
2	9612	44.326672702939	-0.13156094547058
2	9625	44.326761733056	-0.13156139062117
2	9639	44.327614696166	-0.13156309654739
2	9650	44.328008696166	-0.13156703654739
2	9684	44.344242696166	-0.13319043654739
2	9696	44.344243211604	-0.13319043757826
2	9718	44.360477211604	-0.13335277757826
2	9748	44.801121979329	-0.13423406711371
2	9761	44.801547979329	-0.13423832711371
2	9777	44.803578581766	-0.13424238831859
2	9788	44.804004581766	-0.13428498831859
2	9806	44.804005076627	-0.13428498930831
2	9835	44.804399076627	-0.13428892930831
2	9847	44.804820385528	-0.13429103585282
2	9869	44.905723101894	-0.13449284128555
2	9887	44.906181101894	-0.13449742128555
2	9895	44.906181241427	-0.13449742156461
2	9914	44.906575241427	-0.13450136156461
2	9966	45.442057256285	-0.13557232559433
2	9979	45.442483256285	-0.13557658559433
2	9998	45.442889090146	-0.13557739726205
2	10012	45.443315090146	-0.13558165726205
2	10028	45.444148982066	-0.13558332504589
2	10039	45.444574982066	-0.13562592504589
2	10063	45.444824261542	-0.13562642360484
2	10076	45.445250261542	-0.13563068360484
2	10103	45.445644261542	-0.13567008360484
2	10116	45.445644728357	-0.13567008453847
2	10146	45.446038728357	-0.13567402453847
2	10157	45.446339220601	-0.13567552699969
2	10170	45.446411572201	-0.13567567170289
2	10183	45.446837572201	-0.13567993170289
2	10215	45.549272697944	-0.13588480195438
2	10228	45.549666697944	-0.13588874195438
2	10277	46	-0.13678940855849
2	10299	46.016234	-0.13841280855849
2	10307	46.016234394209	-0.13841281052954
2	10333	46.10152330436	-0.13858338834984
2	10346	46.10191730436	-0.13858732834984
2	10362	46.103852903744	-0.13859119954861
2	10373	46.104246903744	-0.13863059954861
2	10484	48.003360239015	-0.14242882621915
2	10495	48.003786239015	-0.14247142621915
2	10520	48.005947767672	-0.14247574927646
2	10540	48.006373767672	-0.14248000927646
2	10545	48.006373996584	-0.14248000973429
2	10564	48.006767996584	-0.14248394973429
2	10579	48.007838717513	-0.14248609117614
2	10592	48.008264717513	-0.14249035117614
2	10611	48.009554848463	-0.14249293143804
2	10622	48.009948848463	-0.14249687143804
2	10651	48.026182848463	-0.14412027143804
2	10661	48.026183205973	-0.14412027215306
2	10686	48.042417205973	-0.14428261215306
2	10714	48.401895563072	-0.14500156886726
2	10734	48.402321563072	-0.14500582886726
2	10739	48.402321669548	-0.14500582908021
2	10756	48.402715669548	-0.14500976908021
2	10769	48.402716222631	-0.14500977018638
2	10806	48.403602260987	-0.14501863056994
2	10817	48.404028260987	-0.14506123056994
2	10834	48.418950222631	-0.14513584037816
2	10853	48.502716222631	-0.14530337237816
2	10872	48.518950222631	-0.14546571237816
2	10876	48.518950551584	-0.14546571303607
2	10898	48.519344551584	-0.14546965303607
2	10985	50	-0.1484309639329
2	11019	50.016234	-0.1500543639329
2	11029	50.016234279133	-0.15005436449116
2	11052	50.032468279133	-0.15021670449116
2	11078	50.323416800878	-0.15079860153465
2	11094	50.323842800878	-0.15080286153465
2	11109	50.326053026129	-0.15080728198516
2	11127	50.326479026129	-0.15081154198516
2	11131	50.32647903147	-0.15081154199584
2	11154	50.32687303147	-0.15081548199584
2	11166	50.328105975496	-0.15081794788389
2	11190	50.328531975496	-0.15086054788389
2	11204	50.328684793219	-0.15086131197251
2	11227	50.430457986755	-0.15106485835958
2	11245	50.430851986755	-0.15106879835958
2	11249	50.430851992092	-0.15106879837025
2	11272	50.431245992092	-0.15107273837025
2	11306	50.801900028966	-0.151814046444
2	11322	50.802326028966	-0.151818306444
2	11334	50.804872739295	-0.15182339986466
2	11345	50.805298739295	-0.15186599986466
2	11359	50.805298989847	-0.15186600036576
2	11380	50.805692989847	-0.15186994036576
2	11394	50.80612487475	-0.15187080413557
2	11418	50.80651887475	-0.15191020413557
2	11432	50.806886514236	-0.151912042333
2	11451	50.906409115115	-0.15211108753476
2	11462	50.906803115115	-0.15215048753476
2	11476	50.906803362192	-0.15215048802891
2	11499	50.907197362192	-0.15215442802891
2	11550	51.443485380418	-0.15322700406536
2	11566	51.443911380418	-0.15323126406536
2	11581	51.444944467437	-0.1532333302394
2	11599	51.445370467437	-0.1532375902394
2	11603	51.445370473335	-0.1532375902512
2	11626	51.445764473335	-0.1532415302512
2	11638	51.448147757002	-0.15324629681853
2	11649	51.448573757002	-0.15328889681853
2	11673	51.449651689864	-0.15329105268425
2	11684	51.450045689864	-0.15329499268425
2	11697	51.450046189929	-0.15329499368438
2	11723	51.466280189929	-0.15345733368438
2	11726	51.466280303563	-0.15345733391165
2	11747	51.482514303563	-0.15361967391165
2	11794	52	-0.15465464530453
2	11816	52.016234	-0.15627804530453
2	11825	52.016234394209	-0.15627804727557
2	11847	52.100048440868	-0.15644567536889
2	11858	52.100442440868	-0.15648507536889
2	11883	52.101364503694	-0.15648691949454
2	11899	52.101822503694	-0.15649149949454
2	12000	54.002299279394	-0.16029245304594
2	12011	54.002725279394	-0.16033505304594
2	12025	54.002725640342	-0.16033505376784
2	12074	54.003119640342	-0.16033899376784
2	12095	54.003536951641	-0.16034108032433
2	12110	54.004626211359	-0.16034325884377
2	12126	54.005052211359	-0.16034751884377
2	12142	54.006725047228	-0.16035086451551
2	12158	54.007151047228	-0.16035512451551
2	12172	54.009465757795	-0.16035975393664
2	12183	54.009891757795	-0.16040235393664
2	12192	54.009891930617	-0.16040235428228
2	12219	54.010285930617	-0.16040629428228
2	12235	54.012358768007	-0.16041043995706
2	12247	54.012752768007	-0.16044983995706
2	12265	54.012753556425	-0.1604498415339
2	12289	54.028987556425	-0.1606121815339
2	12312	54.045221556425	-0.1622355815339
2	12337	54.102725639889	-0.16235058970083
2	12350	54.103151639889	-0.16235484970083
2	12369	54.10664387971	-0.16236183418047
2	12382	54.10703787971	-0.16236577418047
2	12407	54.322152012198	-0.16279600244545
2	12418	54.322578012198	-0.16283860244545
2	12444	54.32329803426	-0.16284004248957
2	12467	54.32372403426	-0.16284430248957
2	12485	54.323804136011	-0.16284470299832
2	12496	54.325360329777	-0.16284781538586
2	12506	54.325786329777	-0.16285207538586
2	12532	54.32705149358	-0.16285460571346
2	12549	54.32747749358	-0.16285886571346
2	12599	54.32787149358	-0.16289826571346
2	12613	54.327871966133	-0.16289826807623
2	12650	54.428121796418	-0.1630987677368
2	12661	54.428515796418	-0.1631381677368
2	12690	54.429106389966	-0.16313934892389
2	12706	54.429500389966	-0.16314328892389
2	12720	54.430173629428	-0.16314463540282
2	12730	54.430567629428	-0.16314857540282
2	12767	54.644739831852	-0.16357691980767
2	12780	54.645165831852	-0.16358117980767
2	12802	54.800647061688	-0.16389214226734
2	12813	54.801073061688	-0.16393474226734
2	12839	54.803358471861	-0.16393931308768
2	12849	54.803784471861	-0.16394357308768
2	12870	54.803792879874	-0.16394358990371
2	12887	54.804218879874	-0.16394784990371
2	12901	54.805593150672	-0.16395059844531
2	12911	54.806019150672	-0.16395485844531
2	12962	55.127806068695	-0.16459843228135
2	12975	55.128232068695	-0.16460269228135
2	13004	55.443620838181	-0.16523346982032
2	13015	55.444046838181	-0.16527606982032
2	13043	55.444514923873	-0.16527700599171
2	13060	55.444940923873	-0.16528126599171
2	13074	55.446179190928	-0.16528374252582
2	13084	55.446605190928	-0.16528800252582
2	13103	55.448432665227	-0.16529165747442
2	13113	55.448858665227	-0.16529591747442
2	13155	55.765442778182	-0.16592908570033
2	13168	55.765868778182	-0.16593334570033
2	13213	56.000000394209	-0.16640160893238
2	13228	56.016234394209	-0.16656394893238
2	13332	58.000000394209	-0.17053148093238
2	13347	58.016234394209	-0.17069382093238
2	13371	58.40004883216	-0.17146144980828
2	13382	58.40047483216	-0.17150404980828
2	13410	58.401639947951	-0.17150638003986
2	13438	58.402065947951	-0.17151064003986
2	13448	58.402442950091	-0.17151252505056
2	13460	58.404457029397	-0.17151655320918
2	13470	58.404883029397	-0.17152081320918
2	13515	58.726321328165	-0.17216368980671
2	13528	58.726747328165	-0.17216794980671
2	13551	58.731516506159	-0.1721774881627
2	13564	58.731942506159	-0.1721817481627
2	13591	58.732336506159	-0.1722211481627
2	13612	58.734623295278	-0.17222572174094
2	13623	58.735017295278	-0.17222966174094
2	13637	58.735017577778	-0.17222966230594
2	13653	58.735411577778	-0.17223360230594
2	13666	58.735412004368	-0.17223360315912
2	13692	58.735806004368	-0.17223754315912
2	13697	58.735806148443	-0.17223754387949
2	13715	58.736231189024	-0.17223839396065
2	13725	58.736657189024	-0.17224265396065
2	13753	58.737445951469	-0.17224423148554
2	13769	58.737871951469	-0.17224849148554
2	13794	58.835412005285	-0.17244357159318
2	13805	58.835806005285	-0.17244751159318
2	13818	58.835806428938	-0.17244751244048
2	13844	58.836200428938	-0.17245145244048
2	13849	58.836200569787	-0.17245145314473
2	13881	58.935806429879	-0.17265066486491
2	13922	58.936264429879	-0.17265524486491
2	13936	58.936594567484	-0.17265689555294
2	14013	60	-0.17478370641797
2	14035	60.016234	-0.17640710641797
2	14046	60.016234394209	-0.17640710838901
2	14067	60.101293420328	-0.17657722644125
2	14078	60.101751420328	-0.17662302644125
2	14106	60.103638875894	-0.17662680135238
2	14122	60.104096875894	-0.17663138135238
2	14186	61.360166523132	-0.17914352064686
2	14197	61.360592523132	-0.17918612064686
2	14224	61.362127804975	-0.17918919121055
2	14248	61.362553804975	-0.17919345121055
2	14265	61.362796155798	-0.17919466296466
2	14277	61.365387988256	-0.17919984662958
2	14290	61.365813988256	-0.17920410662958
2	14305	61.365814296429	-0.17920410724592
2	14322	61.366208296429	-0.17920804724592
2	14338	61.368867955994	-0.17921336656505
2	14349	61.369261955994	-0.17921730656505
2	14381	61.385495955994	-0.18084070656505
2	14388	61.385496231605	-0.18084070711627
2	14420	61.401730231605	-0.18246410711627
2	14428	61.401730506846	-0.18246410849248
2	14449	61.485496231605	-0.182631639942
2	14485	61.501730231605	-0.184255039942
2	14503	61.585496231605	-0.184422571942
2	14514	61.585954231605	-0.184468371942
2	14578	62.000492784226	-0.18529744904724
2	14598	62.000918784226	-0.18530170904724
2	14605	62.000918946857	-0.1853017093725
2	14619	62.001198613378	-0.18530450603771
2	14643	62.001624613378	-0.18534710603771
2	14655	62.004726507667	-0.18535330982629
2	14666	62.005152507667	-0.18539590982629
2	14694	62.005266254544	-0.18539613732004
2	14721	62.005692254544	-0.18540039732004
2	14731	62.00601169241	-0.18540199450937
2	14745	62.006339162537	-0.18540264944963
2	14767	62.006765162537	-0.18540690944963
2	14771	62.006765190214	-0.18540690950498
2	14793	62.007159190214	-0.18541084950498
2	14808	62.009771394311	-0.18541607391318
2	14820	62.010165394311	-0.18542001391318
2	14851	62.026399394311	-0.18704341391318
2	14868	62.026400182729	-0.18704341549001
2	14889	62.042634182729	-0.18720575549001
2	14905	62.100918948948	-0.18732232502245
2	14921	62.101344948948	-0.18732658502245
2	14940	62.103641903388	-0.18733117893133
2	14956	62.104035903388	-0.18733511893133
2	14984	62.321106198769	-0.18776925952209
2	15000	62.321532198769	-0.18777351952209
2	15012	62.322187474942	-0.18777483007444
2	15023	62.322613474942	-0.18781743007444
2	15042	62.322613866467	-0.18781743085749
2	15063	62.323007866467	-0.18782137085749
2	15080	62.32443299026	-0.18782422110507
2	15107	62.32485899026	-0.18782848110507
2	15117	62.324921115702	-0.18782879173228
2	15127	62.325462990171	-0.18782987548122
2	15138	62.325856990171	-0.18786927548122
2	15156	62.325857778589	-0.18786927705806
2	15179	62.342091778589	-0.18803161705806
2	15202	62.358325778589	-0.18965501705806
2	15300	64	-0.19293836550088
2	15322	64.016234	-0.19456176550088
2	15332	64.016234394209	-0.19456176747192
2	15358	64.103194202982	-0.19473568708947
2	15376	64.103652202982	-0.19474026708947
2	15385	64.10365227251	-0.19474026722853
2	15407	64.10404627251	-0.19474420722853
2	15422	64.104157597005	-0.19474442987752
2	15433	64.104615597005	-0.19479022987752
2	15456	64.104616064957	-0.19479023081342
2	15477	64.105010064957	-0.19479417081342
2	15591	66.000352235946	-0.1985848551554
2	15602	66.000778235946	-0.1986274551554
2	15625	66.000778769296	-0.1986274562221
2	15642	66.001172769296	-0.1986313962221
2	15760	66.017406769296	-0.2002547962221
2	15779	66.104342424059	-0.20042866753162
2	15790	66.104736424059	-0.20046806753162
2	15825	66.324634789668	-0.20090786426284
2	15838	66.325060789668	-0.20091212426284
2	15854	66.327181234603	-0.20091636515271
2	15865	66.327607234603	-0.20095896515271
2	15889	66.327607800589	-0.20095896628468
2	15917	66.328001800589	-0.20096290628468
2	15929	66.328073426298	-0.20096326441323
2	15941	66.330381002916	-0.20096787956647
2	15951	66.330807002916	-0.20097213956647
2	15984	66.429043060448	-0.20116861168153
2	16000	66.429501060448	-0.20117319168153
2	16031	66.803533267747	-0.20192125609613
2	16044	66.803959267747	-0.20192551609613
2	16060	66.806194986942	-0.20192998753452
2	16071	66.806620986942	-0.20197258753452
2	16095	66.806621574313	-0.20197258870926
2	16111	66.807015574313	-0.20197652870926
2	16128	66.807650495231	-0.2019777985511
2	16144	66.808076495231	-0.2019820585511
2	16159	66.808831380574	-0.20198356832178
2	16170	66.809225380574	-0.20202296832178
2	16187	66.809226168992	-0.20202296989862
2	16229	66.825460168992	-0.20218530989862
2	16249	66.909456205547	-0.20235330197173
2	16262	66.909914205547	-0.20235788197173
2	16341	68	-0.20453805356063
2	16375	68.016234	-0.20616145356063
2	16395	68.104927457152	-0.20633884047494
2	16406	68.105321457152	-0.20637824047494
2	16441	68.324845252727	-0.20681728806609
2	16454	68.325271252727	-0.20682154806609
2	16469	68.325271651434	-0.2068215488635
2	16486	68.325665651434	-0.2068254888635
2	16499	68.325666182954	-0.20682548992654
2	16538	68.329756603259	-0.20686639412959
2	16549	68.330182603259	-0.20690899412959
2	16567	68.330390930302	-0.20691003576481
2	16577	68.330816930302	-0.20691429576481
2	16595	68.341900182954	-0.20696971202807
2	16613	68.426195713746	-0.20713830308965
2	16626	68.426589713746	-0.20714224308965
2	16730	70.001926581325	-0.21029291682481
2	16743	70.002352581325	-0.21029717682481
2	16761	70.00264447097	-0.2102977606041
2	16771	70.00307047097	-0.2103020206041
2	16793	70.003070861492	-0.21030202138514
2	16807	70.003448841327	-0.21030580118349
2	16830	70.003874841327	-0.21034840118349
2	16843	70.006006126839	-0.21035266375452
2	16854	70.006432126839	-0.21039526375452
2	16880	70.006761343517	-0.21039592218787
2	16890	70.007187343517	-0.21040018218787
2	16927	70.104966148286	-0.21059573979741
2	16943	70.105424148286	-0.21060031979741
2	16967	70.321622418516	-0.21103271633787
2	16977	70.321871480915	-0.21103520696186
2	17000	70.322297480915	-0.21107780696186
2	17035	70.803400971902	-0.21204001394383
2	17045	70.803743941262	-0.21204344363743
2	17068	70.804169941262	-0.21208604363743
2	17115	71.441189036209	-0.21336008182733
2	17126	71.441615036209	-0.21340268182733
2	17152	71.442474440414	-0.21340440063574
2	17162	71.442900440414	-0.21340866063574
2	17178	71.442900757093	-0.2134086612691
2	17210	71.443294757093	-0.2134126012691
2	17227	71.443564175353	-0.2134139483604
2	17239	71.443862282868	-0.21341454457543
2	17257	71.444288282868	-0.21341880457543
2	17284	71.444714282868	-0.21342306457543
2	17299	71.446986800769	-0.21342760961123
2	17309	71.447380800769	-0.21343154961123
2	17368	71.463614800769	-0.21505494961123
2	17371	71.46361487006	-0.21505494974981
2	17405	71.46404087006	-0.21509754974981
2	17420	71.479848939168	-0.21517659009535
2	17439	71.565358851356	-0.21534760991973
2	17449	71.565752851356	-0.21535154991973
2	17483	71.566146851356	-0.21539094991973
2	17542	72.003539587308	-0.21626573539163
2	17553	72.003965587308	-0.21630833539163
2	17566	72.003965938936	-0.21630833609489
2	17602	72.004359938936	-0.21631227609489
2	17689	72.020593938936	-0.21793567609489
2	17708	72.106447370795	-0.2181073829586
2	17719	72.106841370795	-0.2181467829586
2	17833	74.001914040293	-0.2219369282976
2	17844	74.002340040293	-0.2219795282976
2	17871	74.002437457613	-0.22197972313224
2	17895	74.002863457613	-0.22198398313224
2	17906	74.003129000943	-0.22198531084889
2	17919	74.007141456284	-0.22199333575957
2	17929	74.007567456284	-0.22199759575957
2	17941	74.007567764459	-0.22199759637592
2	17961	74.007961764459	-0.22200153637592
2	17981	74.012859747119	-0.22201133234124
2	17993	74.013253747119	-0.22201527234124
2	18023	74.029487747119	-0.22363867234124
2	18030	74.029487879511	-0.22363867260603
2	18053	74.045721879511	-0.22380101260603
2	18084	74.401078038282	-0.22451172492357
2	18094	74.401504038282	-0.22451598492357
2	18116	74.402869212017	-0.22451871527104
2	18126	74.403295212017	-0.22452297527104
2	18146	74.404403600284	-0.22452519204757
2	18157	74.404829600284	-0.22456779204757
2	18182	74.404830533058	-0.22456779391312
2	18195	74.405224533058	-0.22457173391312
2	18210	74.406382960695	-0.22457405076839
2	18221	74.40646660036	-0.22457488716504
2	18245	74.40686060036	-0.22461428716504
2	18268	74.510906818889	-0.2248223796021
2	18279	74.511300818889	-0.2248617796021
2	18304	74.511301756554	-0.22486178147743
2	18319	74.511695756554	-0.22486572147743
2	18408	76	-0.22784232996432
2	18419	76.016234	-0.22946572996432
2	18428	76.016234189718	-0.22946573034376
2	18448	76.032468189718	-0.22962807034376
2	18520	77.363128577297	-0.23228939111892
2	18530	77.363554577297	-0.23229365111892
2	18561	77.363948577297	-0.23233305111892
2	18579	77.363949365715	-0.23233305269575
2	18643	77.380183365715	-0.23249539269575
2	18663	77.463949365715	-0.23266292469575
2	18676	77.480183365715	-0.23282526469575
2	18714	77.496417365715	-0.23444866469575
2	18719	77.496417759924	-0.2344486666668
2	18743	77.580183759924	-0.2346161986668
2	18754	77.580706505142	-0.23462142611898
2	18765	77.581100505142	-0.23466082611898
2	18776	77.596417759924	-0.23473741239289
2	18795	77.680183759924	-0.23490494439289
2	18805	77.680641759924	-0.23490952439289
2	18853	78	-0.23554824087304
2	18887	78.016234	-0.23717164087304
2	18896	78.016234268272	-0.23717164140959
2	18915	78.032468268272	-0.23733398140959
2	18945	78.32102501262	-0.23791109489828
2	18955	78.32145101262	-0.23791535489828
2	18974	78.324646358291	-0.23792174558962
2	18984	78.325072358291	-0.23792600558962
2	19011	78.326436608957	-0.23792873409096
2	19024	78.326862608957	-0.23793086409096
2	19035	78.327814497793	-0.23793276786863
2	19045	78.328240497793	-0.23793702786863
2	19066	78.328241281714	-0.23793702943647
2	19078	78.328453570683	-0.23793809088131
2	19101	78.328879570683	-0.23798069088131
2	19130	78.43252279901	-0.23818797733797
2	19143	78.43298079901	-0.23819026733797
2	19168	78.803175678184	-0.23893065709632
2	19178	78.803601678184	-0.23893491709632
2	19197	78.803641319958	-0.23893499637986
2	19207	78.804067319958	-0.23893925637986
2	19232	78.805931055706	-0.23894298385136
2	19242	78.806357055706	-0.23894724385136
2	19263	78.806357858271	-0.23894724545649
2	19275	78.806368418497	-0.23894729825762
2	19310	78.806794418497	-0.23898989825762
2	19327	78.807146825036	-0.23899166029032
2	19349	78.90680533331	-0.23919097730686
2	19362	78.90719933331	-0.23919294730686
2	19403	79.442030105824	-0.24026260885189
2	19413	79.442456105824	-0.24026686885189
2	19432	79.444583882583	-0.24027112440541
2	19442	79.445009882583	-0.24027538440541
2	19469	79.44505323814	-0.24027547111652
2	19482	79.44547923814	-0.24027760111652
2	19491	79.446722937494	-0.24028008851523
2	19502	79.447148937494	-0.24032268851523
2	19525	79.449541093564	-0.24032747282737
2	19535	79.449967093564	-0.24033173282737
2	19557	79.449967920586	-0.24033173448142
2	19571	79.450361920586	-0.24033370448142
2	19583	79.450859041904	-0.24033469872405
2	19593	79.451253041904	-0.24033863872405
2	19612	79.454139047224	-0.24034441073469
2	19622	79.454533047224	-0.24034835073469
2	19637	79.454533744577	-0.2403483521294
2	19657	79.470767744577	-0.2405106921294
2	19666	79.470767983799	-0.24051069260784
2	19684	79.487001983799	-0.24067303260784
2	19696	79.487002336209	-0.24067303331266
2	19712	79.503236336209	-0.24083537331266
2	19764	80	-0.24182890064024
2	19786	80.016234	-0.24345230064024
2	19796	80.016234394209	-0.24345230261129
2	19821	80.102944092258	-0.24362572200739
2	19831	80.103402092258	-0.24363030200739
2	19932	82	-0.24742349782287
2	19966	82.016234	-0.24904689782287
2	19996	82.324068787452	-0.24966256739777
2	20006	82.324494787452	-0.24966682739777
2	20049	82.802549430168	-0.25062293668321
2	20059	82.802975430168	-0.25062719668321
2	20108	83.441670218575	-0.25190458626002
2	20118	83.442096218575	-0.25190884626002
2	20132	83.446050419392	-0.25191675466165
2	20143	83.446476419392	-0.25195935466165
2	20166	83.446963141969	-0.25196032810681
2	20176	83.447389141969	-0.25196458810681
2	20198	83.451074579096	-0.25197195898106
2	20208	83.451500579096	-0.25197621898106
2	20230	83.452345521509	-0.25197790886589
2	20243	83.452771521509	-0.25198003886589
2	20290	84	-0.25307449582287
2	20301	84.016234	-0.25469789582287
2	20412	86	-0.25866542782287
2	20423	86.016234	-0.26028882782287
2	20457	86.404436718387	-0.26106523325964
2	20467	86.404862718387	-0.26106949325964
2	20481	86.409263252701	-0.26107829432827
2	20492	86.409689252701	-0.26112089432827
2	20515	86.41133141246	-0.26112417864779
2	20525	86.41175741246	-0.26112843864779
2	20544	86.412783999152	-0.26113049182117
2	20554	86.413209999152	-0.26113475182117
2	20573	86.416660902657	-0.26114165362818
2	20586	86.417086902657	-0.26114378362818
2	20677	88	-0.26430960982287
2	20689	88.016234	-0.26593300982287
2	20762	89.364612134109	-0.26862976609109
2	20772	89.365038134109	-0.26863402609109
2	20786	89.367745038077	-0.26863943989902
2	20797	89.368171038077	-0.26868203989902
2	20821	89.37232130431	-0.26869034043149
2	20834	89.37274730431	-0.26869460043149
2	20849	89.372788305607	-0.26869468243408
2	20872	89.373214305607	-0.26869894243408
2	20887	89.373388706644	-0.26869981443927
2	20940	90	-0.26995303702598
2	20951	90.016234	-0.27157643702598
2	21060	92	-0.27554396902598
2	21071	92.016234	-0.27716736902598
2	21187	94	-0.28113490102598
2	21198	94.016234	-0.28275830102598
2	21310	96	-0.28672583302598
2	21321	96.016234	-0.28834923302598
2	21339	96.101678154895	-0.28852012133577
2	21350	96.102072154895	-0.28855952133577
2	21454	98.003482315724	-0.29236234165743
2	21465	98.003908315724	-0.29240494165743
2	21482	98.005146097906	-0.29240741722179
2	21492	98.005572097906	-0.29241167722179
2	21518	98.320198077614	-0.29304092918121
2	21529	98.320624077614	-0.29308352918121
2	21546	98.320924587525	-0.29308413020103
2	21556	98.321350587525	-0.29308839020103
2	21588	98.800305392694	-0.29404629981137
2	21599	98.800731392694	-0.29408889981137
2	21616	98.805270845901	-0.29409797871778
2	21626	98.805696845901	-0.29410223871778
2	21673	99.443699419603	-0.29537824386519
2	21684	99.444125419603	-0.29542084386519
2	21701	99.448616519826	-0.29542982606563
2	21711	99.449042519826	-0.29543408606563
4	113	2	2000
4	648	4	2000
4	1335	6	2000
4	1687	8	2000
4	2136	10	2000
4	2663	12	2000
4	3039	14	2000
4	3357	16	2000
4	3741	18	2000
4	3950	20	2000
4	4289	22	2000
4	4845	24	2000
4	5305	26	2000
4	5673	28	2000
4	6113	30	2000
4	6788	32	2000
4	7158	34	2000
4	7745	36	2000
4	8079	38	2000
4	8458	40	2000
4	8667	42	2000
4	9357	44	2000
4	10256	46	2000
4	10463	48	2000
4	10965	50	2000
4	11773	52	2000
4	11979	54	2000
4	13189	56	2000
4	13308	58	2000
4	13992	60	2000
4	14553	62	2000
4	15279	64	2000
4	15570	66	2000
4	16321	68	2000
4	16706	70	2000
4	17521	72	2000
4	17812	74	2000
4	18388	76	2000
4	18833	78	2000
4	19743	80	2000
4	19912	82	2000
4	20270	84	2000
4	20392	86	2000
4	20657	88	2000
4	20920	90	2000
4	21040	92	2000
4	21167	94	2000
4	21290	96	2000
4	21433	98	2000
4	21742	100	2000
7	130	2	2008
7	664	4	2008
7	1351	6	2008
7	1703	8	2008
7	2152	10	2008
7	2679	12	2008
7	3055	14	2008
7	3372	16	2008
7	3756	18	2008
7	3965	20	2008
7	4304	22	2008
7	4860	24	2008
7	5320	26	2008
7	5688	28	2008
7	6128	30	2008
7	6803	32	2008
7	7173	34	2008
7	7758	36	2008
7	8092	38	2008
7	8471	40	2008
7	8680	42	2008
7	9370	44	2008
7	10269	46	2008
7	10476	48	2008
7	10978	50	2008
7	11786	52	2008
7	11992	54	2008
7	13202	56	2008
7	13321	58	2008
7	14005	60	2008
7	14566	62	2008
7	15292	64	2008
7	15583	66	2008
7	16334	68	2008
7	16719	70	2008
7	17534	72	2008
7	17825	74	2008
7	18401	76	2008
7	18846	78	2008
7	19756	80	2008
7	19925	82	2008
7	20283	84	2008
7	20405	86	2008
7	20670	88	2008
7	20933	90	2008
7	21053	92	2008
7	21180	94	2008
7	21303	96	2008
7	21446	98	2008
7	21755	100	2008
15	275	2.002842169742	52
15	423	2.320496401758	52
15	472	2.321316961118	2028
15	561	2.422171509049	48
15	729	4.003039153334	52
15	874	4.011119774348	2028
15	1190	4.805398080257	52
15	1357	6	2028
15	1451	6.325095935017	52
15	1511	6.326016600036	48
15	1709	8	2028
15	1816	8.32233704758	52
15	2158	10	2028
15	2352	10.326026697425	52
15	2547	10.803862528422	52
15	2685	12	2028
15	2806	12.323218816214	52
15	2866	12.325283142237	48
15	3061	14	2028
15	3223	14.32523944709	52
15	3378	16	2028
15	3500	16.325455143828	52
15	3592	16.329573994242	48
15	3644	16.34620278266	2028
15	3762	18	2028
15	3971	20	2028
15	4155	20.328564504345	52
15	4310	22	2028
15	4431	22.325844002753	52
15	4505	22.328502365299	48
15	4550	22.428988664932	48
15	4651	22.805346605386	48
15	4866	24	2028
15	4957	24.104523238721	48
15	5170	24.330251632609	52
15	5326	26	2028
15	5456	26.100083139847	56
15	5707	28.00169701908	52
15	5821	28.320999982627	52
15	5882	28.321820644359	2028
15	5971	28.423547402752	48
15	6164	30.00391822124	52
15	6196	30.004357257025	52
15	6345	30.009499436242	48
15	6529	30.321137073146	52
15	6658	30.325643826063	2028
15	6809	32	2028
15	6862	32.102392981632	56
15	6928	32.327035104178	52
15	6987	32.331171352146	48
15	7034	32.347800140564	2028
15	7192	34.002941585587	52
15	7266	34.322598555961	52
15	7428	34.802417043088	52
15	7537	35.443654279013	52
15	7662	35.44895303874	2028
15	7764	36	2028
15	7816	36.100932291093	56
15	7879	36.325333331502	52
15	7935	36.326814549478	48
15	7982	36.343443337896	2028
15	8111	38.001024328808	52
15	8186	38.322440281423	52
15	8326	38.329602684887	2028
15	8477	40	2028
15	8560	40.103386316533	56
15	8729	42.003517473927	52
15	8742	42.003678221388	52
15	8871	42.324382526212	52
15	8884	42.324550785761	52
15	9006	42.804706888525	52
15	9057	42.805527580909	2028
15	9078	42.806434997763	52
15	9205	42.907319870956	48
15	9245	42.909750331298	48
15	9378	44.004909146935	52
15	9439	44.322391851533	52
15	9577	44.326246702939	52
15	9654	44.328008696166	2028
15	9776	44.803578581766	52
15	10027	45.444148982066	52
15	10081	45.445250261542	48
15	10275	46	2028
15	10361	46.103852903744	48
15	10483	48.003360239015	52
15	10626	48.009948848463	2028
15	10805	48.403602260987	52
15	10984	50	2028
15	11165	50.328105975496	52
15	11333	50.804872739295	52
15	11393	50.80612487475	48
15	11450	50.906409115115	48
15	11637	51.448147757002	52
15	11792	52	2028
15	11846	52.100048440868	48
15	11999	54.002299279394	52
15	12171	54.009465757795	52
15	12234	54.012358768007	48
15	12292	54.028987556425	2028
15	12406	54.322152012198	52
15	12554	54.32747749358	48
15	12649	54.428121796418	48
15	12801	54.800647061688	52
15	13003	55.443620838181	52
15	13370	58.40004883216	52
15	13569	58.731942506159	48
15	14011	60	2028
15	14066	60.101293420328	56
15	14185	61.360166523132	52
15	14353	61.369261955994	2028
15	14354	61.369261955994	2028
15	14355	61.369261955994	2028
15	14461	61.48750252909	56
15	14618	62.001198613378	52
15	14654	62.004726507667	52
15	14824	62.010165394311	2028
15	15011	62.322187474942	52
15	15126	62.325462990171	48
15	15182	62.342091778589	2028
15	15298	64	2028
15	15421	64.104157597005	56
15	15590	66.000352235946	52
15	15646	66.001172769296	2028
15	15778	66.104342424059	48
15	15853	66.327181234603	52
15	16059	66.806194986942	52
15	16158	66.808831380574	48
15	16340	68	2028
15	16394	68.104927457152	48
15	16537	68.329756603259	52
15	16806	70.003448841327	52
15	16842	70.006006126839	52
15	16976	70.321871480915	52
15	17044	70.803743941262	52
15	17114	71.441189036209	52
15	17313	71.447380800769	2028
15	17337	71.447884271344	52
15	17454	71.565752851356	48
15	17541	72.003539587308	52
15	17606	72.004359938936	2028
15	17707	72.106447370795	48
15	17832	74.001914040293	52
15	17997	74.013253747119	2028
15	18145	74.404403600284	52
15	18220	74.40646660036	48
15	18267	74.510906818889	48
15	18407	76	2028
15	18535	77.363554577297	48
15	18681	77.480183365715	2028
15	18753	77.580706505142	48
15	18852	78	2028
15	19077	78.328453570683	52
15	19274	78.806368418497	52
15	19490	79.446722937494	52
15	19762	80	2028
15	19931	82	2028
15	20131	83.446050419392	52
15	20289	84	2028
15	20411	86	2028
15	20480	86.409263252701	52
15	20676	88	2028
15	20785	89.367745038077	52
15	20939	90	2028
15	21059	92	2028
15	21186	94	2028
15	21309	96	2028
15	21338	96.101678154895	48
15	21453	98.003482315724	52
15	21517	98.320198077614	52
15	21587	98.800305392694	52
15	21672	99.443699419603	52
17	275	2.002842169742	0
17	423	2.320496401758	0
17	472	2.321316961118	0
17	561	2.422171509049	0
17	729	4.003039153334	0
17	874	4.011119774348	0
17	1190	4.805398080257	0
17	1357	6	0
17	1451	6.325095935017	0
17	1511	6.326016600036	0
17	1709	8	0
17	1816	8.32233704758	0
17	2158	10	0
17	2352	10.326026697425	0
17	2547	10.803862528422	0
17	2685	12	0
17	2806	12.323218816214	0
17	2866	12.325283142237	0
17	3061	14	0
17	3223	14.32523944709	0
17	3378	16	0
17	3500	16.325455143828	0
17	3592	16.329573994242	0
17	3644	16.34620278266	0
17	3762	18	0
17	3971	20	0
17	4155	20.328564504345	0
17	4310	22	0
17	4431	22.325844002753	0
17	4505	22.328502365299	0
17	4550	22.428988664932	0
17	4651	22.805346605386	0
17	4866	24	0
17	4957	24.104523238721	0
17	5170	24.330251632609	0
17	5326	26	0
17	5456	26.100083139847	0
17	5707	28.00169701908	0
17	5821	28.320999982627	0
17	5882	28.321820644359	0
17	5971	28.423547402752	0
17	6164	30.00391822124	0
17	6196	30.004357257025	0
17	6345	30.009499436242	0
17	6529	30.321137073146	0
17	6658	30.325643826063	0
17	6809	32	0
17	6862	32.102392981632	0
17	6928	32.327035104178	0
17	6987	32.331171352146	0
17	7034	32.347800140564	0
17	7192	34.002941585587	0
17	7266	34.322598555961	0
17	7428	34.802417043088	0
17	7537	35.443654279013	0
17	7662	35.44895303874	0
17	7764	36	0
17	7816	36.100932291093	0
17	7879	36.325333331502	0
17	7935	36.326814549478	0
17	7982	36.343443337896	0
17	8111	38.001024328808	0
17	8186	38.322440281423	0
17	8326	38.329602684887	0
17	8477	40	0
17	8560	40.103386316533	0
17	8729	42.003517473927	0
17	8755	42.003943473927	0.000265252539
17	8871	42.324382526212	0
17	8885	42.324808526212	0.000257740451
17	9006	42.804706888525	0
17	9057	42.805527580909	0
17	9145	42.905527580909	0.099092583146
17	9205	42.907319870956	0
17	9245	42.909750331298	0
17	9378	44.004909146935	0
17	9439	44.322391851533	0
17	9577	44.326246702939	0
17	9654	44.328008696166	0
17	9776	44.803578581766	0
17	10027	45.444148982066	0
17	10081	45.445250261542	0
17	10275	46	0
17	10361	46.103852903744	0
17	10483	48.003360239015	0
17	10626	48.009948848463	0
17	10805	48.403602260987	0
17	10984	50	0
17	11165	50.328105975496	0
17	11333	50.804872739295	0
17	11393	50.80612487475	0
17	11450	50.906409115115	0
17	11637	51.448147757002	0
17	11792	52	0
17	11846	52.100048440868	0
17	11999	54.002299279394	0
17	12171	54.009465757795	0
17	12234	54.012358768007	0
17	12292	54.028987556425	0
17	12406	54.322152012198	0
17	12554	54.32747749358	0
17	12649	54.428121796418	0
17	12801	54.800647061688	0
17	13003	55.443620838181	0
17	13370	58.40004883216	0
17	13569	58.731942506159	0
17	14011	60	0
17	14066	60.101293420328	0
17	14185	61.360166523132	0
17	14353	61.369261955994	0
17	14387	61.385496231605	0.016234275611
17	14447	61.485496231605	0.116234275611
17	14502	61.585496231605	0.097993702515
17	14618	62.001198613378	0
17	14654	62.004726507667	0
17	14824	62.010165394311	0
17	15011	62.322187474942	0
17	15126	62.325462990171	0
17	15182	62.342091778589	0
17	15298	64	0
17	15421	64.104157597005	0
17	15590	66.000352235946	0
17	15646	66.001172769296	0
17	15778	66.104342424059	0
17	15853	66.327181234603	0
17	16059	66.806194986942	0
17	16158	66.808831380574	0
17	16340	68	0
17	16394	68.104927457152	0
17	16537	68.329756603259	0
17	16806	70.003448841327	0
17	16842	70.006006126839	0
17	16976	70.321871480915	0
17	17044	70.803743941262	0
17	17114	71.441189036209	0
17	17313	71.447380800769	0
17	17370	71.46361487006	0.015730598716
17	17454	71.565752851356	0
17	17541	72.003539587308	0
17	17606	72.004359938936	0
17	17707	72.106447370795	0
17	17832	74.001914040293	0
17	17997	74.013253747119	0
17	18145	74.404403600284	0
17	18220	74.40646660036	0
17	18267	74.510906818889	0
17	18407	76	0
17	18535	77.363554577297	0
17	18681	77.480183365715	0
17	18753	77.580706505142	0
17	18852	78	0
17	19077	78.328453570683	0
17	19274	78.806368418497	0
17	19490	79.446722937494	0
17	19762	80	0
17	19931	82	0
17	20131	83.446050419392	0
17	20289	84	0
17	20411	86	0
17	20480	86.409263252701	0
17	20676	88	0
17	20785	89.367745038077	0
17	20939	90	0
17	21059	92	0
17	21186	94	0
17	21309	96	0
17	21338	96.101678154895	0
17	21453	98.003482315724	0
17	21517	98.320198077614	0
17	21587	98.800305392694	0
17	21672	99.443699419603	0
18	0	0	0
18	8742	42.003678221388	1
18	8755	42.003943473927	0
18	8884	42.324550785761	1
18	8885	42.324808526212	0
18	9078	42.806434997763	1
18	9145	42.905527580909	0
18	14354	61.369261955994	1
18	14355	61.369261955994	2
18	14387	61.385496231605	1
18	14447	61.485496231605	0
18	14461	61.48750252909	1
18	14502	61.585496231605	0
18	17337	71.447884271344	1
18	17370	71.46361487006	0
19	225	2.001102485075	52
19	400	2.103688573436	48
19	469	2.321316961118	48
19	715	4.002244948076	52
19	787	4.007155912974	52
19	839	4.008686688098	52
19	871	4.011119774348	48
19	999	4.322799881735	52
19	1076	4.802116432297	52
19	1104	4.803233581688	52
19	1253	4.90956859722	56
19	1441	6.324817361552	52
19	1501	6.325916661674	48
19	1617	6.428283423251	56
19	1798	8.322016310075	52
19	1879	8.324513747978	52
19	2027	8.427130137787	48
19	2269	10.321814987029	52
19	2293	10.322287838298	52
19	2410	10.429893845739	48
19	2450	10.430288304485	48
19	2501	10.801873424664	52
19	2612	10.90282668998	56
19	2796	12.321776434052	52
19	2856	12.324039376538	48
19	2972	12.428116422046	56
19	3179	14.32465843754	52
19	3289	14.429281817922	48
19	3489	16.32199248587	52
19	3550	16.326275652171	48
19	3574	16.329249586987	52
19	3642	16.34620278266	2028
19	3867	18.100554360212	56
19	4082	20.324172243389	52
19	4218	20.425422554458	48
19	4417	22.323686910581	52
19	4482	22.326664555941	48
19	4604	22.429777220096	48
19	4647	22.805346605386	52
19	4789	22.906700528237	56
19	5029	24.321260631799	52
19	5065	24.325926966145	52
19	5232	24.428219631869	56
19	5546	26.324250952699	52
19	5788	28.102842138919	48
19	5879	28.321820644359	48
19	6149	30.001249864991	52
19	6244	30.00517802903	48
19	6279	30.005960457325	52
19	6330	30.009442079667	52
19	6457	30.114483082074	56
19	6655	30.325643826063	48
19	6916	32.323461619514	52
19	6976	32.327855961128	48
19	7032	32.347800140564	2028
19	7246	34.102081809072	56
19	7365	34.325010790927	52
19	7468	34.807213528613	52
19	7659	35.44895303874	48
19	7867	36.324745672215	52
19	7924	36.32615420893	48
[...]
224	20946	90.000000703521	-0.18347497629699
224	20962	90.016234703521	-0.18355614629699
224	21066	92.000000703521	-0.18752367829699
224	21082	92.016234703521	-0.18760484829699
224	21193	94.000000703521	-0.19157238029699
224	21208	94.016234703521	-0.19165355029699
224	21316	96.000000703521	-0.19562108229699
224	21327	96.016234703521	-0.19570225229699
224	21345	96.101678858416	-0.19587314060678
224	21358	96.102072858416	-0.19587511060678
224	21460	98.003483019245	-0.19967793092844
224	21473	98.003909019245	-0.19968006092844
224	21524	98.320198781135	-0.20031264045222
224	21537	98.320624781135	-0.20031477045222
224	21594	98.800306096215	-0.20127413308238
224	21607	98.800732096215	-0.20127626308238
224	21679	99.443700123124	-0.2025621991362
224	21692	99.444126123124	-0.2025643291362
231	0	0	0
235	20875	89.373214369243	52
237	0	0	0
237	0	0	2
238	0	0	1
238	186	2.000677188551	2
238	209	2.000915977798	1
238	213	2.000916430013	2
238	238	2.001103188551	1
238	244	2.001103455127	2
238	266	2.001497455127	1
238	270	2.001497737402	2
238	333	2.017150430013	1
238	377	2.103295276912	2
238	392	2.103560177682	1
238	430	2.320497105279	2
238	455	2.320923105279	1
238	460	2.320923492232	2
238	484	2.321317492232	1
238	488	2.321317664639	2
238	549	2.337551664639	1
238	568	2.42217221257	2
238	587	2.42256621257	1
238	692	4.001819651552	2
238	707	4.002052939951	1
238	736	4.003039856855	2
238	755	4.003465856855	1
238	799	4.0071565872	2
238	815	4.0075505872	1
238	886	4.011120477869	2
238	913	4.027354477869	1
238	1097	4.802808147128	2
238	1123	4.803234147128	1
238	1157	4.804611617887	2
238	1176	4.805005617887	1
238	1197	4.805398783778	2
238	1207	4.805824783778	1
238	1364	6.000000703521	2
238	1402	6.016234703521	1
238	1458	6.325096638538	2
238	1483	6.325522638538	1
238	1518	6.326017303557	2
238	1537	6.326411303557	1
238	1558	6.327366255934	2
238	1568	6.327792255934	1
238	1716	8.000000703521	2
238	1754	8.016234703521	1
238	1823	8.322337751101	2
238	1859	8.322763751101	1
238	1872	8.324088367827	2
238	1885	8.324514367827	1
238	2013	8.426736841263	2
238	2032	8.427130841263	1
238	2169	10.000000703521	2
238	2221	10.016234703521	1
238	2286	10.321862491578	2
238	2312	10.322288491578	1
238	2319	10.322288992662	2
238	2334	10.322682992662	1
238	2346	10.325918865374	2
238	2381	10.326453400946	1
238	2403	10.429500500847	2
238	2429	10.429894500847	1
238	2436	10.429895000948	2
238	2455	10.430289000948	1
238	2511	10.801874141732	2
238	2534	10.802268141732	1
238	2554	10.803863231943	2
238	2564	10.804289231943	1
238	2696	12.000000703521	2
238	2748	12.016234703521	1
238	2813	12.323219519735	2
238	2839	12.323645519735	1
238	2846	12.323646078462	2
238	2861	12.324040078462	1
238	2873	12.325283845758	2
238	2892	12.325677845758	1
238	2913	12.328456554882	2
238	2923	12.328882554882	1
238	3072	14.000000703521	2
238	3124	14.016234703521	1
238	3188	14.324659141041	2
238	3212	14.325053141041	1
238	3230	14.325240150611	2
238	3240	14.325666150611	1
238	3389	16.000000703521	2
238	3441	16.016234703521	1
238	3507	16.325455847349	2
238	3533	16.325881847349	1
238	3539	16.325882351515	2
238	3555	16.326276351515	1
238	3567	16.328824260669	2
238	3586	16.329250260669	1
238	3599	16.329574697763	2
238	3618	16.329968697763	1
238	3654	16.346203486181	2
238	3674	16.362437486181	1
238	3779	18.000000703521	2
238	3829	18.016235097685	1
238	3982	20.000000703521	2
238	4034	20.016234703521	1
238	4096	20.324173003475	2
238	4120	20.324567003475	1
238	4139	20.324687302477	2
238	4149	20.325113302477	1
238	4162	20.328565207866	2
238	4175	20.328991207866	1
238	4321	22.000000703521	2
238	4373	22.016234703521	1
238	4438	22.325844706274	2
238	4464	22.326270706274	1
238	4469	22.326271206171	2
238	4486	22.326665206171	1
238	4499	22.328170414353	2
238	4535	22.32889706882	1
238	4557	22.428989368453	2
238	4583	22.429383368453	1
238	4588	22.429383869058	2
238	4608	22.429777869058	1
238	4665	22.805347308907	2
238	4687	22.805741308907	1
238	4708	22.809378353999	2
238	4721	22.809804353999	1
238	4731	22.812044180695	2
238	4742	22.812470180695	1
238	4877	24.000000703521	2
238	4923	24.016234703521	1
238	4964	24.104523942242	2
238	4996	24.104917942242	1
238	5050	24.325501478768	2
238	5079	24.325927478768	1
238	5083	24.325927831716	2
238	5100	24.326321831716	1
238	5113	24.32702170421	2
238	5132	24.32741570421	1
238	5151	24.327984634554	2
238	5161	24.328410634554	1
238	5177	24.33025233613	2
238	5187	24.33067833613	1
238	5333	26.000000703521	2
238	5432	26.016234703521	1
238	5463	26.100083843368	2
238	5482	26.100541843368	1
238	5559	26.324251824889	2
238	5581	26.324645824889	1
238	5714	28.001697722601	2
238	5725	28.002123722601	1
238	5741	28.002606375636	2
238	5751	28.003032375636	1
238	5828	28.321000686148	2
238	5863	28.321426686148	1
238	5868	28.321427090245	2
238	5891	28.321821090245	1
238	5893	28.32182134788	2
238	5959	28.33805534788	1
238	5978	28.423548106273	2
238	5997	28.423942106273	1
238	6171	30.003918924761	2
238	6190	30.004344924761	1
238	6203	30.004357960546	2
238	6227	30.004783960546	1
238	6235	30.00478456609	2
238	6250	30.00517856609	1
238	6263	30.005534994373	2
238	6290	30.005960994373	1
238	6291	30.005961015224	2
238	6310	30.006355015224	1
238	6352	30.009500139763	2
238	6370	30.009894139763	1
238	6392	30.011177749554	2
238	6404	30.011571749554	1
238	6441	30.1140256174	2
238	6468	30.1144836174	1
238	6469	30.114483638481	2
238	6503	30.114877638481	1
238	6536	30.321137776667	2
238	6555	30.321563776667	1
238	6581	30.32199086626	2
238	6613	30.32241686626	1
238	6614	30.322416887784	2
238	6633	30.322810887784	1
238	6646	30.325250358035	2
238	6667	30.325644358035	1
238	6669	30.325644529584	2
238	6696	30.341878529584	1
238	6704	30.341879141462	2
238	6721	30.358113141462	1
238	6816	32.000000703521	2
238	6851	32.016234703521	1
238	6869	32.102393685153	2
238	6888	32.102851685153	1
238	6935	32.327035807699	2
238	6959	32.327461807699	1
238	6967	32.327462461418	2
238	6981	32.327856461418	1
238	6994	32.331172055667	2
238	7012	32.331566055667	1
238	7046	32.347800844085	2
238	7066	32.364034844085	1
238	7199	34.002942289108	2
238	7211	34.003368289108	1
238	7273	34.322599259482	2
238	7301	34.323025259482	1
238	7312	34.323025860509	2
238	7331	34.323419860509	1
238	7354	34.324585260136	2
238	7370	34.325011260136	1
238	7392	34.423954041355	2
238	7408	34.424348041355	1
238	7435	34.802417746609	2
238	7448	34.802843746609	1
238	7544	35.443654982534	2
238	7560	35.444080982534	1
238	7573	35.445148226927	2
238	7608	35.445574226927	1
238	7609	35.445574283968	2
238	7637	35.445968283968	1
238	7650	35.448559508978	2
238	7669	35.448953508978	1
238	7672	35.448953742261	2
238	7698	35.465187742261	1
238	7706	35.46518842641	2
238	7723	35.48142242641	1
238	7771	36.000000703521	2
238	7805	36.016234703521	1
238	7823	36.100932994614	2
238	7839	36.101390994614	1
238	7886	36.325334035023	2
238	7907	36.325760035023	1
238	7915	36.325760688555	2
238	7929	36.326154688555	1
238	7942	36.326815252999	2
238	7959	36.327209252999	1
238	7994	36.343444041417	2
238	8014	36.359678041417	1
238	8118	38.001025032329	2
238	8130	38.001451032329	1
238	8193	38.322440984944	2
238	8212	38.322866984944	1
238	8225	38.324645633323	2
238	8252	38.325071633323	1
238	8253	38.325071691718	2
238	8272	38.325465691718	1
238	8314	38.329209187084	2
238	8335	38.329603187084	1
238	8337	38.329603388408	2
238	8365	38.345837388408	1
238	8373	38.345837972712	2
238	8391	38.362071972712	1
238	8490	40.000000703521	2
238	8512	40.016234703521	1
238	8567	40.103387020054	2
238	8586	40.103845020054	1
238	8722	42.003359315848	2
238	8786	42.004370177448	1
238	8808	42.108246790553	2
238	8827	42.108640790553	1
238	8878	42.324383229733	2
238	8919	42.325235229733	1
238	9013	42.804707592046	2
238	9038	42.805133592046	1
238	9043	42.805134060644	2
238	9066	42.805528060644	1
238	9068	42.80552828443	2
238	9135	42.82176228443	1
238	9153	42.90552828443	2
238	9179	42.90595428443	1
238	9182	42.905954719752	2
238	9199	42.906348719752	1
238	9213	42.907320574477	2
238	9231	42.907714574477	1
238	9253	42.909751034819	2
238	9264	42.910145034819	1
238	9386	44.004909850456	2
238	9411	44.005335850456	1
238	9447	44.322392555054	2
238	9466	44.322818555054	1
238	9510	44.325305903837	2
238	9538	44.325731903837	1
238	9539	44.325731973366	2
238	9571	44.326125973366	1
238	9585	44.32624740646	2
238	9629	44.326762242479	1
238	9642	44.327615275685	2
238	9664	44.328009275685	1
238	9667	44.328009399687	2
238	9700	44.344243399687	1
238	9703	44.344243791357	2
238	9723	44.360477791357	1
238	9784	44.803579285287	2
238	9810	44.804005285287	1
238	9813	44.804005662883	2
238	9851	44.804820904353	1
238	9872	44.905723689598	2
238	9899	44.906181689598	1
238	9901	44.906181762257	2
238	9926	44.906575762257	1
238	10001	45.442889621551	2
238	10021	45.443315621551	1
238	10035	45.444149685587	2
238	10054	45.444575685587	1
238	10066	45.444824856977	2
238	10093	45.445250856977	1
238	10096	45.445250965063	2
238	10120	45.445644965063	1
238	10123	45.445645323804	2
238	10150	45.446039323804	1
238	10173	45.446412103676	2
238	10192	45.446838103676	1
238	10218	45.549273294886	2
238	10237	45.549667294886	1
238	10289	46.000000703521	2
238	10311	46.016234703521	1
238	10369	46.103853607265	2
238	10388	46.104247607265	1
238	10491	48.003360942536	2
238	10510	48.003786942536	1
238	10553	48.006374578078	2
238	10570	48.006768578078	1
238	10583	48.007839350574	2
238	10602	48.008265350574	1
238	10615	48.00955548155	2
238	10638	48.00994948155	1
238	10639	48.009949551984	2
238	10667	48.026183551984	1
238	10671	48.026183839306	2
238	10692	48.042417839306	1
238	10746	48.402322308442	2
238	10771	48.402716308442	1
238	10790	48.402805114733	2
238	10800	48.403231114733	1
238	10813	48.403602964508	2
238	10824	48.404028964508	1
238	10992	50.000000703521	2
238	11035	50.016234703521	1
238	11038	50.016234941436	2
238	11058	50.032468941436	1
238	11113	50.326053650385	2
238	11141	50.326479650385	1
238	11142	50.326479698099	2
238	11160	50.326873698099	1
238	11173	50.328106679017	2
238	11208	50.328685417515	1
238	11231	50.430458612826	2
238	11259	50.430852612826	1
238	11260	50.430852660157	2
238	11282	50.431246660157	1
238	11341	50.804873442816	2
238	11368	50.805299442816	1
238	11371	50.805299662962	2
238	11388	50.805693662962	1
238	11401	50.806125578271	2
238	11436	50.80688714674	1
238	11458	50.906409818636	2
238	11485	50.906803818636	1
238	11488	50.906804036645	2
238	11509	50.907198036645	1
238	11585	51.444945110447	2
238	11613	51.445371110447	1
238	11614	51.445371154626	2
238	11632	51.445765154626	1
238	11645	51.448148460523	2
238	11664	51.448574460523	1
238	11677	51.44965233295	2
238	11698	51.45004633295	1
238	11733	51.466280946914	2
238	11753	51.482514946914	1
238	11807	52.000000703521	2
238	11829	52.016234703521	1
238	11854	52.100049144389	2
238	11873	52.100443144389	1
238	12007	54.002299982915	2
238	12036	54.002725982915	1
238	12040	54.002726318485	2
238	12100	54.003537256701	1
238	12179	54.009466461316	2
238	12210	54.009892461316	1
238	12211	54.009892633349	2
238	12229	54.010286633349	1
238	12242	54.012359471528	2
238	12264	54.012753471528	1
238	12303	54.028988259946	2
238	12325	54.045222259946	1
238	12341	54.102726319129	2
238	12360	54.103152319129	1
238	12373	54.106644558994	2
238	12392	54.107038558994	1
238	12414	54.322152715719	2
238	12436	54.322578715719	1
238	12449	54.32329834287	2
238	12474	54.32372434287	1
238	12501	54.325361033168	2
238	12523	54.325787033168	1
238	12536	54.327052175199	2
238	12580	54.327478175199	1
238	12581	54.327478197101	2
238	12617	54.327872215088	1
238	12657	54.428122499939	2
238	12679	54.428516499939	1
238	12725	54.430174332915	2
238	12747	54.430568332915	1
238	12771	54.644740516634	2
238	12790	54.645166516634	1
238	12809	54.800647765209	2
238	12831	54.801073765209	1
238	12844	54.803358785893	2
238	12860	54.803784785893	1
238	12906	54.80559385399	2
238	12928	54.80601985399	1
238	12966	55.127806757813	2
238	12985	55.128232757813	1
238	13011	55.443621541702	2
238	13033	55.444047541702	1
238	13079	55.446179512412	2
238	13095	55.446605512412	1
238	13108	55.448433366387	2
238	13130	55.448859366387	1
238	13159	55.765443472131	2
238	13178	55.765869472131	1
238	13378	58.400049535681	2
238	13400	58.400475535681	1
238	13426	58.402017308792	2
238	13452	58.402443308792	1
238	13465	58.404457697354	2
238	13487	58.404883697354	1
238	13519	58.726322031686	2
238	13541	58.726748031686	1
238	13555	58.731516869323	2
238	13581	58.731942869323	1
238	13587	58.73194320968	2
238	13603	58.73233720968	1
238	13616	58.734623658484	2
238	13640	58.735017658484	1
238	13646	58.735018281299	2
238	13673	58.735412281299	1
238	13677	58.73541251166	2
238	13706	58.735806707889	1
238	13720	58.73623185182	2
238	13742	58.73665785182	1
238	13798	58.835412708795	2
238	13825	58.835806708795	1
238	13829	58.835806934378	2
238	13858	58.836201132449	1
238	13889	58.935806933456	2
238	13940	58.936594933453	1
238	14026	60.000000703521	2
238	14049	60.016234703521	1
238	14074	60.101294123849	2
238	14096	60.101752123849	1
238	14193	61.360167226653	2
238	14215	61.360593226653	1
238	14228	61.362128423765	2
238	14258	61.362554423765	1
238	14280	61.365388389489	2
238	14306	61.365814389489	1
238	14313	61.365814994353	2
238	14329	61.366208994353	1
238	14341	61.36886835728	2
238	14365	61.36926235728	1
238	14370	61.369262659515	2
238	14404	61.385496659515	1
238	14408	61.385496908386	2
238	14436	61.401730935126	1
238	14456	61.485496935126	2
238	14494	61.501730935126	1
238	14510	61.585496935126	2
238	14532	61.585954935126	1
238	14611	62.000919554657	2
238	14649	62.001625316899	1
238	14662	62.004727211188	2
238	14684	62.005153211188	1
238	14697	62.005266949785	2
238	14734	62.006012103549	1
238	14777	62.006765885449	2
238	14798	62.007159885449	1
238	14835	62.010166097832	2
238	14866	62.026400097832	1
238	14908	62.100919555029	2
238	14930	62.101345555029	1
238	14943	62.103642509423	2
238	14965	62.104036509423	1
238	15019	62.322188178463	2
238	15049	62.322614178463	1
238	15052	62.322614468743	2
238	15070	62.323008468743	1
238	15083	62.324433684021	2
238	15120	62.324921531871	1
238	15134	62.325463693692	2
238	15154	62.325857693692	1
238	15193	62.34209248211	2
238	15215	62.35832648211	1
238	15313	64.000000703521	2
238	15336	64.016234703521	1
238	15391	64.10365295669	2
238	15416	64.10404695669	1
238	15429	64.104158300526	2
238	15459	64.104616300526	1
238	15462	64.104616637021	2
238	15486	64.105010637021	1
238	15598	66.000352939467	2
238	15628	66.000778939467	1
238	15632	66.000779444147	2
238	15657	66.001173444147	1
238	15658	66.001173472817	2
238	15767	66.017407472817	1
238	15786	66.10434312758	2
238	15808	66.10473712758	1
238	15861	66.327181938124	2
238	15890	66.327607938124	1
238	15895	66.327608336477	2
238	15932	66.328074099813	1
238	15946	66.330381487343	2
238	15965	66.330807487343	1
238	15988	66.429043594735	2
238	16010	66.429501594735	1
238	16067	66.806195690463	2
238	16096	66.806621690463	1
238	16101	66.806622102679	2
238	16119	66.807016102679	1
238	16131	66.807651166637	2
238	16153	66.808077166637	1
238	16166	66.808832084095	2
238	16186	66.809226084095	1
238	16207	66.811466303796	2
238	16217	66.811892303796	1
238	16348	68.000000703521	2
238	16384	68.016234703521	1
238	16402	68.104928160673	2
238	16424	68.105322160673	1
238	16476	68.325272156648	2
238	16497	68.325666156648	1
238	16518	68.328757722815	2
238	16532	68.329183722815	1
238	16545	68.32975730678	2
238	16559	68.33018330678	1
238	16572	68.33039145127	2
238	16586	68.33081745127	1
238	16766	70.00264512223	2
238	16796	70.00307112223	1
238	16800	70.003071342394	2
238	16837	70.003875544848	1
238	16850	70.00600683036	2
238	16872	70.00643283036	1
238	16885	70.006761894228	2
238	16907	70.007187894228	1
238	16930	70.104966627755	2
238	16949	70.105424627755	1
238	16984	70.321872184436	2
238	17007	70.322298184436	1
238	17052	70.803744644783	2
238	17075	70.804170644783	1
238	17122	71.44118973973	2
238	17144	71.44161573973	1
238	17157	71.442475012322	2
238	17187	71.442901012322	1
238	17190	71.442901394187	2
238	17230	71.443564636455	1
238	17304	71.446987372731	2
238	17328	71.447381372731	1
238	17329	71.44738150429	2
238	17393	71.46361550429	1
238	17394	71.463615511329	2
238	17426	71.479849511329	1
238	17444	71.565359424697	2
238	17475	71.565753424697	1
238	17476	71.565753554877	2
238	17501	71.566147554877	1
238	17549	72.003540290829	2
238	17579	72.003966290829	1
238	17582	72.003966569304	2
238	17620	72.004360569304	1
238	17621	72.004360642457	2
238	17696	72.020594642457	1
238	17715	72.106448074316	2
238	17737	72.106842074316	1
238	17840	74.001914743814	2
238	17862	74.002340743814	1
238	17877	74.002437885913	2
238	17902	74.002863885913	1
238	17924	74.007142035911	2
238	17951	74.007568035911	1
238	17954	74.007568363876	2
238	17972	74.007962363876	1
238	17986	74.012860326709	2
238	18011	74.013254326709	1
238	18012	74.01325445064	2
238	18042	74.02948845064	1
238	18043	74.029488458992	2
238	18064	74.045722458992	1
238	18121	74.402869788636	2
238	18140	74.403295788636	1
238	18153	74.404404303805	2
238	18179	74.404830303805	1
238	18190	74.40483095647	2
238	18204	74.40522495647	1
238	18215	74.40638355249	2
238	18251	74.406861303881	1
238	18275	74.51090752241	2
238	18301	74.51130152241	1
238	18312	74.511302178685	2
238	18328	74.511696178685	1
238	18415	76.000000703521	2
238	18437	76.016234703521	1
238	18438	76.016234747703	2
238	18460	76.032468747703	1
238	18554	77.363555280818	2
238	18578	77.363949280818	1
238	18600	77.367866926104	2
238	18635	77.368602094968	1
238	18700	77.480184069236	2
238	18726	77.496418069236	1
238	18761	77.580707208663	2
238	18771	77.581101208663	1
238	18860	78.000000703521	2
238	18903	78.016234703521	1
238	18904	78.016234797447	2
238	18926	78.032468797447	1
238	18978	78.324646882897	2
238	19000	78.325072882897	1
238	19010	78.326436554569	2
238	19023	78.326862554569	1
238	19040	78.32781498733	2
238	19063	78.32824098733	1
238	19074	78.328241661083	2
238	19111	78.328880274204	1
238	19136	78.432523177294	2
238	19149	78.432981177294	1
238	19201	78.803641837479	2
238	19223	78.804067837479	1
238	19237	78.805931529766	2
238	19260	78.806357529766	1
238	19271	78.806358232699	2
238	19326	78.807146770648	1
238	19355	78.906805706711	2
238	19368	78.907199706711	1
238	19436	79.444584390687	2
238	19458	79.445010390687	1
238	19468	79.445053183752	2
238	19481	79.445479183752	1
238	19498	79.446723641015	2
238	19517	79.447149641015	1
238	19530	79.449541545989	2
238	19553	79.449967545989	1
238	19564	79.449968288499	2
238	19577	79.450362288499	1
238	19588	79.450859494284	2
238	19603	79.451253494284	1
238	19616	79.454139555189	2
238	19635	79.454533555189	1
238	19673	79.47076849152	2
238	19698	79.48700249152	1
238	19703	79.487002787349	2
238	19723	79.503236787349	1
238	19777	80.000000703521	2
238	19802	80.016234703521	1
238	19939	82.000000703521	2
238	19977	82.016234703521	1
238	20139	83.446051122913	2
238	20158	83.446477122913	1
238	20170	83.446963594879	2
238	20189	83.447389594879	1
238	20201	83.451074882583	2
238	20217	83.451500882583	1
238	20229	83.452345467121	2
238	20242	83.452771467121	1
238	20297	84.000000703521	2
238	20313	84.016234703521	1
238	20418	86.000000703521	2
238	20434	86.016234703521	1
238	20487	86.409263956222	2
238	20506	86.409689956222	1
238	20519	86.411331829581	2
238	20535	86.411757829581	1
238	20545	86.4127841838	2
238	20558	86.4132101838	1
238	20572	86.416660848269	2
238	20585	86.417086848269	1
238	20683	88.000000703521	2
238	20700	88.016234703521	1
238	20792	89.367745741598	2
238	20811	89.368171741598	1
238	20824	89.372321690007	2
238	20840	89.372747690007	1
238	20850	89.372788369243	3
238	20874	89.373214369243	2
238	20886	89.373388652256	1
238	20946	90.000000703521	2
238	20962	90.016234703521	1
238	21066	92.000000703521	2
238	21082	92.016234703521	1
238	21193	94.000000703521	2
238	21208	94.016234703521	1
238	21316	96.000000703521	2
238	21327	96.016234703521	1
238	21345	96.101678858416	2
238	21358	96.102072858416	1
238	21460	98.003483019245	2
238	21473	98.003909019245	1
238	21524	98.320198781135	2
238	21537	98.320624781135	1
238	21594	98.800306096215	2
238	21607	98.800732096215	1
238	21679	99.443700123124	2
238	21692	99.444126123124	1
