version 2
run Wireless11-0-20170410-14:39:13-4914
attr configname Wireless11
attr datetime 20170410-14:39:13
attr experiment Wireless11
attr inifile omnetpp.ini
attr iterationvars ""
attr iterationvars2 $repetition=0
attr measurement ""
attr network WirelessB
attr processid 4914
attr repetition 0
attr replication #0
attr resultdir results
attr runnumber 0
attr seedset 0
param **.constraintAreaMaxX 600m
param **.constraintAreaMaxY 500m
param **.constraintAreaMaxZ 0m
param **.constraintAreaMinX 0m
param **.constraintAreaMinY 0m
param **.constraintAreaMinZ 0m
param **.hostA.mobility.speed 7mps
param **.hostA.mobilityType "\"RandomWPMobility\""
param **.hostA.pcapRecorder[0].pcapFile "\"results/hostA.pcap\""
param **.hostB.pcapRecorder[0].pcapFile "\"results/hostB.pcap\""
param **.host[0].pcapRecorder[0].pcapFile "\"results/host0.pcap\""
param **.host[10].pcapRecorder[0].pcapFile "\"results/host10.pcap\""
param **.host[11].pcapRecorder[0].pcapFile "\"results/host11.pcap\""
param **.host[12].pcapRecorder[0].pcapFile "\"results/host12.pcap\""
param **.host[13].pcapRecorder[0].pcapFile "\"results/host13.pcap\""
param **.host[14].pcapRecorder[0].pcapFile "\"results/host14.pcap\""
param **.host[15].pcapRecorder[0].pcapFile "\"results/host15.pcap\""
param **.host[16].pcapRecorder[0].pcapFile "\"results/host16.pcap\""
param **.host[17].pcapRecorder[0].pcapFile "\"results/host17.pcap\""
param **.host[1].pcapRecorder[0].pcapFile "\"results/host1.pcap\""
param **.host[2].mobility.speed 7mps
param **.host[2].mobilityType "\"RandomWPMobility\""
param **.host[2].pcapRecorder[0].pcapFile "\"results/host2.pcap\""
param **.host[3].mobility.speed 7mps
param **.host[3].mobilityType "\"RandomWPMobility\""
param **.host[3].pcapRecorder[0].pcapFile "\"results/host3.pcap\""
param **.host[4].mobility.speed 7mps
param **.host[4].mobilityType "\"RandomWPMobility\""
param **.host[4].pcapRecorder[0].pcapFile "\"results/host4.pcap\""
param **.host[5].pcapRecorder[0].pcapFile "\"results/host5.pcap\""
param **.host[6].pcapRecorder[0].pcapFile "\"results/host6.pcap\""
param **.host[7].pcapRecorder[0].pcapFile "\"results/host7.pcap\""
param **.host[8].pcapRecorder[0].pcapFile "\"results/host8.pcap\""
param **.host[9].pcapRecorder[0].pcapFile "\"results/host9.pcap\""
param **.numPcapRecorders 1
param *.configurator.addStaticRoutes false
param *.configurator.config "xml(\"<config><interface hosts='**' address='10.0.0.x' netmask='255.255.255.0'/><autoroute metric='errorRate'/></config>\")"
param *.configurator.optimizeRoutes true
param *.host*.**.bitrate 1Mbps
param *.host*.energyStorageType "\"IdealEnergyStorage\""
param *.host*.forwarding true
param *.host*.networkLayer.arpType "\"GlobalARP\""
param *.host*.routingTable.netmaskRoutes "\"\""
param *.host*.wlan[0].mac.fullDuplex false
param *.host*.wlan[0].mac.maxQueueSize 10
param *.host*.wlan[0].mac.useAck false
param *.host*.wlan[0].radio.bandwidth 2MHz
param *.host*.wlan[0].radio.carrierFrequency 2GHz
param *.host*.wlan[0].radio.displayInterferenceRange false
param *.host*.wlan[0].radio.energyConsumer transmitterIdlePowerConsumption 2mW
param *.host*.wlan[0].radio.energyConsumer.offPowerConsumption 0mW
param *.host*.wlan[0].radio.energyConsumer.receiverBusyPowerConsumption 5mW
param *.host*.wlan[0].radio.energyConsumer.receiverIdlePowerConsumption 2mW
param *.host*.wlan[0].radio.energyConsumer.receiverReceivingPowerConsumption 10mW
param *.host*.wlan[0].radio.energyConsumer.sleepPowerConsumption 1mW
param *.host*.wlan[0].radio.energyConsumer.switchingPowerConsumption 1mW
param *.host*.wlan[0].radio.energyConsumer.transmitterTransmittingPowerConsumption 100mW
param *.host*.wlan[0].radio.energyConsumerType "\"StateBasedEnergyConsumer\""
param *.host*.wlan[0].radio.receiver.energyDetection -85dBm
param *.host*.wlan[0].radio.receiver.ignoreInterference true
param *.host*.wlan[0].radio.receiver.sensitivity -80dBm
param *.host*.wlan[0].radio.receiver.snirThreshold 4dB
param *.host*.wlan[0].radio.transmitter.communicationRange 500m
param *.host*.wlan[0].radio.transmitter.headerBitLength 0b
param *.host*.wlan[0].radio.transmitter.interferenceRange 500m
param *.host*.wlan[0].radio.transmitter.power 1.4mW
param *.host*.wlan[0].radio.transmitter.preambleDuration 10us
param *.host*.wlan[0].radioType "\"APSKScalarRadio\""
param *.host*.wlan[0].typename "\"IdealWirelessNic\""
param *.hostA.numUdpApps 1
param *.hostA.udpApp[0].destAddresses "\"hostB\""
param *.hostA.udpApp[0].destPort 5000
param *.hostA.udpApp[0].messageLength 2000B
param *.hostA.udpApp[0].sendInterval 2s
param *.hostA.udpApp[0].typename "\"UDPBasicApp\""
param *.hostA.wlan[0].radio.displayCommunicationRange true
param *.hostA.wlan[0].radio.displayInterferenceRange true
param *.hostB.numUdpApps 1
param *.hostB.udpApp[0].localPort 5000
param *.hostB.udpApp[0].typename "\"UDPSink\""
param *.hostB.wlan[0].radio.displayCommunicationRange false
param *.hostR1.wlan[0].radio.displayCommunicationRange false
param *.hostType "\"AODVRouter\""
param *.host[2].numUdpApps 1
param *.host[2].udpApp[0].localPort 5000
param *.host[2].udpApp[0].typename "\"UDPSink\""
param *.host[2].wlan[0].radio.displayCommunicationRange true
param *.host[3].numUdpApps 1
param *.host[3].udpApp[0].destAddresses "\"host[6]\""
param *.host[3].udpApp[0].destPort 5000
param *.host[3].udpApp[0].messageLength 2000B
param *.host[3].udpApp[0].sendInterval 2s
param *.host[3].udpApp[0].typename "\"UDPBasicApp\""
param *.host[3].wlan[0].radio.displayCommunicationRange true
param *.host[4].wlan[0].radio.displayCommunicationRange true
param *.host[6].numUdpApps 1
param *.host[6].udpApp[0].localPort 5000
param *.host[6].udpApp[0].typename "\"UDPSink\""
param *.host[9].numUdpApps 1
param *.host[9].udpApp[0].destAddresses "\"host[2]\""
param *.host[9].udpApp[0].destPort 5000
param *.host[9].udpApp[0].messageLength 2000B
param *.host[9].udpApp[0].sendInterval 2s
param *.host[9].udpApp[0].typename "\"UDPBasicApp\""
param *.mediumType "\"APSKScalarRadioMedium\""
param *.numHosts 10
param *.radioMedium.backgroundNoise.power -90dBm
param *.radioMedium.mediumLimitCache.carrierFrequency 2GHz
param *.visualizer.*.statisticVisualizer.color "\"yellow\""
param *.visualizer.*.statisticVisualizer.statisticName "\"throughput\""
param *.visualizer.dataLinkVisualizer.packetNameFilter "\"UDPData*\""
param *.visualizer.mediumVisualizer.displaySignals true
param *.visualizer.mediumVisualizer.signalPropagationUpdateInterval 100ns
param *.visualizer.mobilityVisualizer.displayMovementTrail true
param *.visualizer.networkRouteVisualizer.packetNameFilter "\"UDPData*\""
param *.visualizer.physicalLinkVisualizer.packetNameFilter "\"UDPData*\""
param *.visualizer.sceneVisualizer.descriptionFigure "\"title\""

vector 18  WirelessB.hostA.wlan[0].queue  queueLength:vector  ETV
attr interpolationmode  sample-hold
attr title  "queue length, vector"
vector 0  WirelessB.hostA.energyStorage  powerConsumption:vector  ETV
attr interpolationmode  sample-hold
attr source  powerConsumptionChanged
attr title  "Power consumption, vector"
vector 45  WirelessB.hostB.wlan[0].queue  queueLength:vector  ETV
attr interpolationmode  sample-hold
attr title  "queue length, vector"
vector 28  WirelessB.hostB.energyStorage  powerConsumption:vector  ETV
attr interpolationmode  sample-hold
attr source  powerConsumptionChanged
attr title  "Power consumption, vector"
vector 64  WirelessB.host[0].wlan[0].queue  queueLength:vector  ETV
attr interpolationmode  sample-hold
attr title  "queue length, vector"
vector 55  WirelessB.host[0].energyStorage  powerConsumption:vector  ETV
attr interpolationmode  sample-hold
attr source  powerConsumptionChanged
attr title  "Power consumption, vector"
vector 83  WirelessB.host[1].wlan[0].queue  queueLength:vector  ETV
attr interpolationmode  sample-hold
attr title  "queue length, vector"
vector 74  WirelessB.host[1].energyStorage  powerConsumption:vector  ETV
attr interpolationmode  sample-hold
attr source  powerConsumptionChanged
attr title  "Power consumption, vector"
vector 110  WirelessB.host[2].wlan[0].queue  queueLength:vector  ETV
attr interpolationmode  sample-hold
attr title  "queue length, vector"
vector 93  WirelessB.host[2].energyStorage  powerConsumption:vector  ETV
attr interpolationmode  sample-hold
attr source  powerConsumptionChanged
attr title  "Power consumption, vector"
vector 138  WirelessB.host[3].wlan[0].queue  queueLength:vector  ETV
attr interpolationmode  sample-hold
attr title  "queue length, vector"
vector 120  WirelessB.host[3].energyStorage  powerConsumption:vector  ETV
attr interpolationmode  sample-hold
attr source  powerConsumptionChanged
attr title  "Power consumption, vector"
vector 157  WirelessB.host[4].wlan[0].queue  queueLength:vector  ETV
attr interpolationmode  sample-hold
attr title  "queue length, vector"
vector 148  WirelessB.host[4].energyStorage  powerConsumption:vector  ETV
attr interpolationmode  sample-hold
attr source  powerConsumptionChanged
attr title  "Power consumption, vector"
vector 176  WirelessB.host[5].wlan[0].queue  queueLength:vector  ETV
attr interpolationmode  sample-hold
attr title  "queue length, vector"
vector 167  WirelessB.host[5].energyStorage  powerConsumption:vector  ETV
attr interpolationmode  sample-hold
attr source  powerConsumptionChanged
attr title  "Power consumption, vector"
vector 203  WirelessB.host[6].wlan[0].queue  queueLength:vector  ETV
attr interpolationmode  sample-hold
attr title  "queue length, vector"
vector 186  WirelessB.host[6].energyStorage  powerConsumption:vector  ETV
attr interpolationmode  sample-hold
attr source  powerConsumptionChanged
attr title  "Power consumption, vector"
vector 222  WirelessB.host[7].wlan[0].queue  queueLength:vector  ETV
attr interpolationmode  sample-hold
attr title  "queue length, vector"
vector 213  WirelessB.host[7].energyStorage  powerConsumption:vector  ETV
attr interpolationmode  sample-hold
attr source  powerConsumptionChanged
attr title  "Power consumption, vector"
vector 241  WirelessB.host[8].wlan[0].queue  queueLength:vector  ETV
attr interpolationmode  sample-hold
attr title  "queue length, vector"
vector 232  WirelessB.host[8].energyStorage  powerConsumption:vector  ETV
attr interpolationmode  sample-hold
attr source  powerConsumptionChanged
attr title  "Power consumption, vector"
vector 269  WirelessB.host[9].wlan[0].queue  queueLength:vector  ETV
attr interpolationmode  sample-hold
attr title  "queue length, vector"
vector 251  WirelessB.host[9].energyStorage  powerConsumption:vector  ETV
attr interpolationmode  sample-hold
attr source  powerConsumptionChanged
attr title  "Power consumption, vector"
vector 24  WirelessB.hostA.wlan[0].radio  radioMode:vector  ETV
attr interpolationmode  sample-hold
attr source  radioModeChanged
attr title  "Radio mode, vector"
vector 51  WirelessB.hostB.wlan[0].radio  radioMode:vector  ETV
attr interpolationmode  sample-hold
attr source  radioModeChanged
attr title  "Radio mode, vector"
vector 70  WirelessB.host[0].wlan[0].radio  radioMode:vector  ETV
attr interpolationmode  sample-hold
attr source  radioModeChanged
attr title  "Radio mode, vector"
vector 89  WirelessB.host[1].wlan[0].radio  radioMode:vector  ETV
attr interpolationmode  sample-hold
attr source  radioModeChanged
attr title  "Radio mode, vector"
vector 116  WirelessB.host[2].wlan[0].radio  radioMode:vector  ETV
attr interpolationmode  sample-hold
attr source  radioModeChanged
attr title  "Radio mode, vector"
vector 144  WirelessB.host[3].wlan[0].radio  radioMode:vector  ETV
attr interpolationmode  sample-hold
attr source  radioModeChanged
attr title  "Radio mode, vector"
vector 163  WirelessB.host[4].wlan[0].radio  radioMode:vector  ETV
attr interpolationmode  sample-hold
attr source  radioModeChanged
attr title  "Radio mode, vector"
vector 182  WirelessB.host[5].wlan[0].radio  radioMode:vector  ETV
attr interpolationmode  sample-hold
attr source  radioModeChanged
attr title  "Radio mode, vector"
vector 209  WirelessB.host[6].wlan[0].radio  radioMode:vector  ETV
attr interpolationmode  sample-hold
attr source  radioModeChanged
attr title  "Radio mode, vector"
vector 228  WirelessB.host[7].wlan[0].radio  radioMode:vector  ETV
attr interpolationmode  sample-hold
attr source  radioModeChanged
attr title  "Radio mode, vector"
vector 247  WirelessB.host[8].wlan[0].radio  radioMode:vector  ETV
attr interpolationmode  sample-hold
attr source  radioModeChanged
attr title  "Radio mode, vector"
vector 275  WirelessB.host[9].wlan[0].radio  radioMode:vector  ETV
attr interpolationmode  sample-hold
attr source  radioModeChanged
attr title  "Radio mode, vector"
vector 25  WirelessB.hostA.wlan[0].radio  receptionState:vector  ETV
attr interpolationmode  sample-hold
attr source  receptionStateChanged
attr title  "Radio reception state, vector"
vector 52  WirelessB.hostB.wlan[0].radio  receptionState:vector  ETV
attr interpolationmode  sample-hold
attr source  receptionStateChanged
attr title  "Radio reception state, vector"
vector 71  WirelessB.host[0].wlan[0].radio  receptionState:vector  ETV
attr interpolationmode  sample-hold
attr source  receptionStateChanged
attr title  "Radio reception state, vector"
vector 90  WirelessB.host[1].wlan[0].radio  receptionState:vector  ETV
attr interpolationmode  sample-hold
attr source  receptionStateChanged
attr title  "Radio reception state, vector"
vector 117  WirelessB.host[2].wlan[0].radio  receptionState:vector  ETV
attr interpolationmode  sample-hold
attr source  receptionStateChanged
attr title  "Radio reception state, vector"
vector 145  WirelessB.host[3].wlan[0].radio  receptionState:vector  ETV
attr interpolationmode  sample-hold
attr source  receptionStateChanged
attr title  "Radio reception state, vector"
vector 164  WirelessB.host[4].wlan[0].radio  receptionState:vector  ETV
attr interpolationmode  sample-hold
attr source  receptionStateChanged
attr title  "Radio reception state, vector"
vector 183  WirelessB.host[5].wlan[0].radio  receptionState:vector  ETV
attr interpolationmode  sample-hold
attr source  receptionStateChanged
attr title  "Radio reception state, vector"
vector 210  WirelessB.host[6].wlan[0].radio  receptionState:vector  ETV
attr interpolationmode  sample-hold
attr source  receptionStateChanged
attr title  "Radio reception state, vector"
vector 229  WirelessB.host[7].wlan[0].radio  receptionState:vector  ETV
attr interpolationmode  sample-hold
attr source  receptionStateChanged
attr title  "Radio reception state, vector"
vector 248  WirelessB.host[8].wlan[0].radio  receptionState:vector  ETV
attr interpolationmode  sample-hold
attr source  receptionStateChanged
attr title  "Radio reception state, vector"
vector 276  WirelessB.host[9].wlan[0].radio  receptionState:vector  ETV
attr interpolationmode  sample-hold
attr source  receptionStateChanged
attr title  "Radio reception state, vector"
vector 4  WirelessB.hostA.udpApp[0]  sentPk:vector(packetBytes)  ETV
attr interpolationmode  none
attr source  sentPk
attr title  "packets sent, vector(packetBytes)"
vector 124  WirelessB.host[3].udpApp[0]  sentPk:vector(packetBytes)  ETV
attr interpolationmode  none
attr source  sentPk
attr title  "packets sent, vector(packetBytes)"
vector 255  WirelessB.host[9].udpApp[0]  sentPk:vector(packetBytes)  ETV
attr interpolationmode  none
attr source  sentPk
attr title  "packets sent, vector(packetBytes)"
vector 7  WirelessB.hostA.udp  sentPk:vector(packetBytes)  ETV
attr interpolationmode  none
attr source  sentPk
attr title  "packets sent, vector(packetBytes)"
vector 127  WirelessB.host[3].udp  sentPk:vector(packetBytes)  ETV
attr interpolationmode  none
attr source  sentPk
attr title  "packets sent, vector(packetBytes)"
vector 258  WirelessB.host[9].udp  sentPk:vector(packetBytes)  ETV
attr interpolationmode  none
attr source  sentPk
attr title  "packets sent, vector(packetBytes)"
vector 135  WirelessB.host[3].wlan[0].queue  rcvdPk:vector(packetBytes)  ETV
attr interpolationmode  none
attr title  "received packets, vector(packetBytes)"
vector 137  WirelessB.host[3].wlan[0].queue  queueingTime:vector  ETV
attr interpolationmode  none
attr title  "queueing time, vector"
vector 141  WirelessB.host[3].wlan[0].mac  rcvdPkFromHL:vector(packetBytes)  ETV
attr interpolationmode  none
attr source  packetReceivedFromUpper
attr title  "packets received from higher layer, vector(packetBytes)"
vector 122  WirelessB.host[3].energyStorage  residualCapacity:vector  ETV
attr interpolationmode  linear
attr source  residualCapacityChanged
attr title  "Residual capacity, vector"
vector 146  WirelessB.host[3].wlan[0].radio  transmissionState:vector  ETV
attr interpolationmode  sample-hold
attr source  transmissionStateChanged
attr title  "Radio transmission state, vector"
vector 140  WirelessB.host[3].wlan[0].mac  sentDownPk:vector(packetBytes)  ETV
attr interpolationmode  none
attr source  packetSentToLower
attr title  "packets sent to lower layer, vector(packetBytes)"
vector 188  WirelessB.host[6].energyStorage  residualCapacity:vector  ETV
attr interpolationmode  linear
attr source  residualCapacityChanged
attr title  "Residual capacity, vector"
vector 234  WirelessB.host[8].energyStorage  residualCapacity:vector  ETV
attr interpolationmode  linear
attr source  residualCapacityChanged
attr title  "Residual capacity, vector"
vector 169  WirelessB.host[5].energyStorage  residualCapacity:vector  ETV
attr interpolationmode  linear
attr source  residualCapacityChanged
attr title  "Residual capacity, vector"
vector 30  WirelessB.hostB.energyStorage  residualCapacity:vector  ETV
attr interpolationmode  linear
attr source  residualCapacityChanged
attr title  "Residual capacity, vector"
vector 2  WirelessB.hostA.energyStorage  residualCapacity:vector  ETV
attr interpolationmode  linear
attr source  residualCapacityChanged
attr title  "Residual capacity, vector"
vector 215  WirelessB.host[7].energyStorage  residualCapacity:vector  ETV
attr interpolationmode  linear
attr source  residualCapacityChanged
attr title  "Residual capacity, vector"
vector 207  WirelessB.host[6].wlan[0].mac  rcvdPkFromLL:vector(packetBytes)  ETV
attr interpolationmode  none
attr source  packetReceivedFromLower
attr title  "packets received from lower layer, vector(packetBytes)"
vector 204  WirelessB.host[6].wlan[0].mac  passedUpPk:vector(packetBytes)  ETV
attr interpolationmode  none
attr source  packetSentToUpper
attr title  "packets passed to higher layer, vector(packetBytes)"
vector 200  WirelessB.host[6].wlan[0].queue  rcvdPk:vector(packetBytes)  ETV
attr interpolationmode  none
attr title  "received packets, vector(packetBytes)"
vector 202  WirelessB.host[6].wlan[0].queue  queueingTime:vector  ETV
attr interpolationmode  none
attr title  "queueing time, vector"
vector 206  WirelessB.host[6].wlan[0].mac  rcvdPkFromHL:vector(packetBytes)  ETV
attr interpolationmode  none
attr source  packetReceivedFromUpper
attr title  "packets received from higher layer, vector(packetBytes)"
vector 211  WirelessB.host[6].wlan[0].radio  transmissionState:vector  ETV
attr interpolationmode  sample-hold
attr source  transmissionStateChanged
attr title  "Radio transmission state, vector"
vector 205  WirelessB.host[6].wlan[0].mac  sentDownPk:vector(packetBytes)  ETV
attr interpolationmode  none
attr source  packetSentToLower
attr title  "packets sent to lower layer, vector(packetBytes)"
vector 245  WirelessB.host[8].wlan[0].mac  rcvdPkFromLL:vector(packetBytes)  ETV
attr interpolationmode  none
attr source  packetReceivedFromLower
attr title  "packets received from lower layer, vector(packetBytes)"
vector 242  WirelessB.host[8].wlan[0].mac  passedUpPk:vector(packetBytes)  ETV
attr interpolationmode  none
attr source  packetSentToUpper
attr title  "packets passed to higher layer, vector(packetBytes)"
vector 150  WirelessB.host[4].energyStorage  residualCapacity:vector  ETV
attr interpolationmode  linear
attr source  residualCapacityChanged
attr title  "Residual capacity, vector"
vector 142  WirelessB.host[3].wlan[0].mac  rcvdPkFromLL:vector(packetBytes)  ETV
attr interpolationmode  none
attr source  packetReceivedFromLower
attr title  "packets received from lower layer, vector(packetBytes)"
vector 139  WirelessB.host[3].wlan[0].mac  passedUpPk:vector(packetBytes)  ETV
attr interpolationmode  none
attr source  packetSentToUpper
attr title  "packets passed to higher layer, vector(packetBytes)"
vector 246  WirelessB.host[8].wlan[0].mac  droppedPkNotForUs:vector(packetBytes)  ETV
attr interpolationmode  none
attr source  dropPkNotForUs
attr title  "packets dropped/not for us, vector(packetBytes)"
vector 15  WirelessB.hostA.wlan[0].queue  rcvdPk:vector(packetBytes)  ETV
attr interpolationmode  none
attr title  "received packets, vector(packetBytes)"
vector 17  WirelessB.hostA.wlan[0].queue  queueingTime:vector  ETV
attr interpolationmode  none
attr title  "queueing time, vector"
vector 21  WirelessB.hostA.wlan[0].mac  rcvdPkFromHL:vector(packetBytes)  ETV
attr interpolationmode  none
attr source  packetReceivedFromUpper
attr title  "packets received from higher layer, vector(packetBytes)"
vector 26  WirelessB.hostA.wlan[0].radio  transmissionState:vector  ETV
attr interpolationmode  sample-hold
attr source  transmissionStateChanged
attr title  "Radio transmission state, vector"
vector 20  WirelessB.hostA.wlan[0].mac  sentDownPk:vector(packetBytes)  ETV
attr interpolationmode  none
attr source  packetSentToLower
attr title  "packets sent to lower layer, vector(packetBytes)"
vector 95  WirelessB.host[2].energyStorage  residualCapacity:vector  ETV
attr interpolationmode  linear
attr source  residualCapacityChanged
attr title  "Residual capacity, vector"
vector 253  WirelessB.host[9].energyStorage  residualCapacity:vector  ETV
attr interpolationmode  linear
attr source  residualCapacityChanged
attr title  "Residual capacity, vector"
vector 76  WirelessB.host[1].energyStorage  residualCapacity:vector  ETV
attr interpolationmode  linear
attr source  residualCapacityChanged
attr title  "Residual capacity, vector"
vector 57  WirelessB.host[0].energyStorage  residualCapacity:vector  ETV
attr interpolationmode  linear
attr source  residualCapacityChanged
attr title  "Residual capacity, vector"
vector 49  WirelessB.hostB.wlan[0].mac  rcvdPkFromLL:vector(packetBytes)  ETV
attr interpolationmode  none
attr source  packetReceivedFromLower
attr title  "packets received from lower layer, vector(packetBytes)"
vector 46  WirelessB.hostB.wlan[0].mac  passedUpPk:vector(packetBytes)  ETV
attr interpolationmode  none
attr source  packetSentToUpper
attr title  "packets passed to higher layer, vector(packetBytes)"
vector 42  WirelessB.hostB.wlan[0].queue  rcvdPk:vector(packetBytes)  ETV
attr interpolationmode  none
attr title  "received packets, vector(packetBytes)"
vector 44  WirelessB.hostB.wlan[0].queue  queueingTime:vector  ETV
attr interpolationmode  none
attr title  "queueing time, vector"
vector 48  WirelessB.hostB.wlan[0].mac  rcvdPkFromHL:vector(packetBytes)  ETV
attr interpolationmode  none
attr source  packetReceivedFromUpper
attr title  "packets received from higher layer, vector(packetBytes)"
vector 53  WirelessB.hostB.wlan[0].radio  transmissionState:vector  ETV
attr interpolationmode  sample-hold
attr source  transmissionStateChanged
attr title  "Radio transmission state, vector"
vector 47  WirelessB.hostB.wlan[0].mac  sentDownPk:vector(packetBytes)  ETV
attr interpolationmode  none
attr source  packetSentToLower
attr title  "packets sent to lower layer, vector(packetBytes)"
vector 226  WirelessB.host[7].wlan[0].mac  rcvdPkFromLL:vector(packetBytes)  ETV
attr interpolationmode  none
attr source  packetReceivedFromLower
attr title  "packets received from lower layer, vector(packetBytes)"
vector 223  WirelessB.host[7].wlan[0].mac  passedUpPk:vector(packetBytes)  ETV
attr interpolationmode  none
attr source  packetSentToUpper
attr title  "packets passed to higher layer, vector(packetBytes)"
vector 22  WirelessB.hostA.wlan[0].mac  rcvdPkFromLL:vector(packetBytes)  ETV
attr interpolationmode  none
attr source  packetReceivedFromLower
attr title  "packets received from lower layer, vector(packetBytes)"
vector 19  WirelessB.hostA.wlan[0].mac  passedUpPk:vector(packetBytes)  ETV
attr interpolationmode  none
attr source  packetSentToUpper
attr title  "packets passed to higher layer, vector(packetBytes)"
vector 180  WirelessB.host[5].wlan[0].mac  rcvdPkFromLL:vector(packetBytes)  ETV
attr interpolationmode  none
attr source  packetReceivedFromLower
attr title  "packets received from lower layer, vector(packetBytes)"
vector 114  WirelessB.host[2].wlan[0].mac  rcvdPkFromLL:vector(packetBytes)  ETV
attr interpolationmode  none
attr source  packetReceivedFromLower
attr title  "packets received from lower layer, vector(packetBytes)"
vector 115  WirelessB.host[2].wlan[0].mac  droppedPkNotForUs:vector(packetBytes)  ETV
attr interpolationmode  none
attr source  dropPkNotForUs
attr title  "packets dropped/not for us, vector(packetBytes)"
vector 266  WirelessB.host[9].wlan[0].queue  rcvdPk:vector(packetBytes)  ETV
attr interpolationmode  none
attr title  "received packets, vector(packetBytes)"
vector 268  WirelessB.host[9].wlan[0].queue  queueingTime:vector  ETV
attr interpolationmode  none
attr title  "queueing time, vector"
vector 272  WirelessB.host[9].wlan[0].mac  rcvdPkFromHL:vector(packetBytes)  ETV
attr interpolationmode  none
attr source  packetReceivedFromUpper
attr title  "packets received from higher layer, vector(packetBytes)"
vector 277  WirelessB.host[9].wlan[0].radio  transmissionState:vector  ETV
attr interpolationmode  sample-hold
attr source  transmissionStateChanged
attr title  "Radio transmission state, vector"
vector 271  WirelessB.host[9].wlan[0].mac  sentDownPk:vector(packetBytes)  ETV
attr interpolationmode  none
attr source  packetSentToLower
attr title  "packets sent to lower layer, vector(packetBytes)"
vector 238  WirelessB.host[8].wlan[0].queue  rcvdPk:vector(packetBytes)  ETV
attr interpolationmode  none
attr title  "received packets, vector(packetBytes)"
vector 240  WirelessB.host[8].wlan[0].queue  queueingTime:vector  ETV
attr interpolationmode  none
attr title  "queueing time, vector"
vector 244  WirelessB.host[8].wlan[0].mac  rcvdPkFromHL:vector(packetBytes)  ETV
attr interpolationmode  none
attr source  packetReceivedFromUpper
attr title  "packets received from higher layer, vector(packetBytes)"
vector 249  WirelessB.host[8].wlan[0].radio  transmissionState:vector  ETV
attr interpolationmode  sample-hold
attr source  transmissionStateChanged
attr title  "Radio transmission state, vector"
vector 243  WirelessB.host[8].wlan[0].mac  sentDownPk:vector(packetBytes)  ETV
attr interpolationmode  none
attr source  packetSentToLower
attr title  "packets sent to lower layer, vector(packetBytes)"
vector 219  WirelessB.host[7].wlan[0].queue  rcvdPk:vector(packetBytes)  ETV
attr interpolationmode  none
attr title  "received packets, vector(packetBytes)"
vector 221  WirelessB.host[7].wlan[0].queue  queueingTime:vector  ETV
attr interpolationmode  none
attr title  "queueing time, vector"
vector 225  WirelessB.host[7].wlan[0].mac  rcvdPkFromHL:vector(packetBytes)  ETV
attr interpolationmode  none
attr source  packetReceivedFromUpper
attr title  "packets received from higher layer, vector(packetBytes)"
vector 230  WirelessB.host[7].wlan[0].radio  transmissionState:vector  ETV
attr interpolationmode  sample-hold
attr source  transmissionStateChanged
attr title  "Radio transmission state, vector"
vector 224  WirelessB.host[7].wlan[0].mac  sentDownPk:vector(packetBytes)  ETV
attr interpolationmode  none
attr source  packetSentToLower
attr title  "packets sent to lower layer, vector(packetBytes)"
vector 193  WirelessB.host[6].udp  rcvdPk:vector(packetBytes)  ETV
attr interpolationmode  none
attr source  rcvdPk
attr title  "packets received, vector(packetBytes)"
vector 194  WirelessB.host[6].udp  passedUpPk:vector(count)  ETV
attr interpolationmode  none
attr title  "packets passed up, vector(count)"
vector 189  WirelessB.host[6].udpApp[0]  rcvdPk:vector(packetBytes)  ETV
attr interpolationmode  none
attr source  rcvdPk
attr title  "packets received, vector(packetBytes)"
vector 190  WirelessB.host[6].udpApp[0]  endToEndDelay:vector  ETV
attr interpolationmode  none
attr source  messageAge(rcvdPk)
attr title  "end-to-end delay, vector"
attr unit  s
vector 191  WirelessB.host[6].udpApp[0]  rcvdPkSeqNo:vector  ETV
attr interpolationmode  none
attr source  appPkSeqNo(rcvdPk)
attr title  "received packet sequence number, vector"
vector 35  WirelessB.hostB.udp  rcvdPk:vector(packetBytes)  ETV
attr interpolationmode  none
attr source  rcvdPk
attr title  "packets received, vector(packetBytes)"
vector 36  WirelessB.hostB.udp  passedUpPk:vector(count)  ETV
attr interpolationmode  none
attr title  "packets passed up, vector(count)"
vector 31  WirelessB.hostB.udpApp[0]  rcvdPk:vector(packetBytes)  ETV
attr interpolationmode  none
attr source  rcvdPk
attr title  "packets received, vector(packetBytes)"
vector 32  WirelessB.hostB.udpApp[0]  endToEndDelay:vector  ETV
attr interpolationmode  none
attr source  messageAge(rcvdPk)
attr title  "end-to-end delay, vector"
attr unit  s
vector 33  WirelessB.hostB.udpApp[0]  rcvdPkSeqNo:vector  ETV
attr interpolationmode  none
attr source  appPkSeqNo(rcvdPk)
attr title  "received packet sequence number, vector"
vector 111  WirelessB.host[2].wlan[0].mac  passedUpPk:vector(packetBytes)  ETV
attr interpolationmode  none
attr source  packetSentToUpper
attr title  "packets passed to higher layer, vector(packetBytes)"
vector 107  WirelessB.host[2].wlan[0].queue  rcvdPk:vector(packetBytes)  ETV
attr interpolationmode  none
attr title  "received packets, vector(packetBytes)"
vector 109  WirelessB.host[2].wlan[0].queue  queueingTime:vector  ETV
attr interpolationmode  none
attr title  "queueing time, vector"
vector 113  WirelessB.host[2].wlan[0].mac  rcvdPkFromHL:vector(packetBytes)  ETV
attr interpolationmode  none
attr source  packetReceivedFromUpper
attr title  "packets received from higher layer, vector(packetBytes)"
vector 118  WirelessB.host[2].wlan[0].radio  transmissionState:vector  ETV
attr interpolationmode  sample-hold
attr source  transmissionStateChanged
attr title  "Radio transmission state, vector"
vector 112  WirelessB.host[2].wlan[0].mac  sentDownPk:vector(packetBytes)  ETV
attr interpolationmode  none
attr source  packetSentToLower
attr title  "packets sent to lower layer, vector(packetBytes)"
vector 273  WirelessB.host[9].wlan[0].mac  rcvdPkFromLL:vector(packetBytes)  ETV
attr interpolationmode  none
attr source  packetReceivedFromLower
attr title  "packets received from lower layer, vector(packetBytes)"
vector 270  WirelessB.host[9].wlan[0].mac  passedUpPk:vector(packetBytes)  ETV
attr interpolationmode  none
attr source  packetSentToUpper
attr title  "packets passed to higher layer, vector(packetBytes)"
vector 227  WirelessB.host[7].wlan[0].mac  droppedPkNotForUs:vector(packetBytes)  ETV
attr interpolationmode  none
attr source  dropPkNotForUs
attr title  "packets dropped/not for us, vector(packetBytes)"
vector 100  WirelessB.host[2].udp  rcvdPk:vector(packetBytes)  ETV
attr interpolationmode  none
attr source  rcvdPk
attr title  "packets received, vector(packetBytes)"
vector 101  WirelessB.host[2].udp  passedUpPk:vector(count)  ETV
attr interpolationmode  none
attr title  "packets passed up, vector(count)"
vector 96  WirelessB.host[2].udpApp[0]  rcvdPk:vector(packetBytes)  ETV
attr interpolationmode  none
attr source  rcvdPk
attr title  "packets received, vector(packetBytes)"
vector 97  WirelessB.host[2].udpApp[0]  endToEndDelay:vector  ETV
attr interpolationmode  none
attr source  messageAge(rcvdPk)
attr title  "end-to-end delay, vector"
attr unit  s
vector 98  WirelessB.host[2].udpApp[0]  rcvdPkSeqNo:vector  ETV
attr interpolationmode  none
attr source  appPkSeqNo(rcvdPk)
attr title  "received packet sequence number, vector"
vector 177  WirelessB.host[5].wlan[0].mac  passedUpPk:vector(packetBytes)  ETV
attr interpolationmode  none
attr source  packetSentToUpper
attr title  "packets passed to higher layer, vector(packetBytes)"
vector 23  WirelessB.hostA.wlan[0].mac  droppedPkNotForUs:vector(packetBytes)  ETV
attr interpolationmode  none
attr source  dropPkNotForUs
attr title  "packets dropped/not for us, vector(packetBytes)"
vector 173  WirelessB.host[5].wlan[0].queue  rcvdPk:vector(packetBytes)  ETV
attr interpolationmode  none
attr title  "received packets, vector(packetBytes)"
vector 175  WirelessB.host[5].wlan[0].queue  queueingTime:vector  ETV
attr interpolationmode  none
attr title  "queueing time, vector"
vector 179  WirelessB.host[5].wlan[0].mac  rcvdPkFromHL:vector(packetBytes)  ETV
attr interpolationmode  none
attr source  packetReceivedFromUpper
attr title  "packets received from higher layer, vector(packetBytes)"
vector 184  WirelessB.host[5].wlan[0].radio  transmissionState:vector  ETV
attr interpolationmode  sample-hold
attr source  transmissionStateChanged
attr title  "Radio transmission state, vector"
vector 178  WirelessB.host[5].wlan[0].mac  sentDownPk:vector(packetBytes)  ETV
attr interpolationmode  none
attr source  packetSentToLower
attr title  "packets sent to lower layer, vector(packetBytes)"
vector 181  WirelessB.host[5].wlan[0].mac  droppedPkNotForUs:vector(packetBytes)  ETV
attr interpolationmode  none
attr source  dropPkNotForUs
attr title  "packets dropped/not for us, vector(packetBytes)"
vector 143  WirelessB.host[3].wlan[0].mac  droppedPkNotForUs:vector(packetBytes)  ETV
attr interpolationmode  none
attr source  dropPkNotForUs
attr title  "packets dropped/not for us, vector(packetBytes)"
vector 208  WirelessB.host[6].wlan[0].mac  droppedPkNotForUs:vector(packetBytes)  ETV
attr interpolationmode  none
attr source  dropPkNotForUs
attr title  "packets dropped/not for us, vector(packetBytes)"
vector 50  WirelessB.hostB.wlan[0].mac  droppedPkNotForUs:vector(packetBytes)  ETV
attr interpolationmode  none
attr source  dropPkNotForUs
attr title  "packets dropped/not for us, vector(packetBytes)"
vector 161  WirelessB.host[4].wlan[0].mac  rcvdPkFromLL:vector(packetBytes)  ETV
attr interpolationmode  none
attr source  packetReceivedFromLower
attr title  "packets received from lower layer, vector(packetBytes)"
vector 158  WirelessB.host[4].wlan[0].mac  passedUpPk:vector(packetBytes)  ETV
attr interpolationmode  none
attr source  packetSentToUpper
attr title  "packets passed to higher layer, vector(packetBytes)"
vector 154  WirelessB.host[4].wlan[0].queue  rcvdPk:vector(packetBytes)  ETV
attr interpolationmode  none
attr title  "received packets, vector(packetBytes)"
vector 156  WirelessB.host[4].wlan[0].queue  queueingTime:vector  ETV
attr interpolationmode  none
attr title  "queueing time, vector"
vector 160  WirelessB.host[4].wlan[0].mac  rcvdPkFromHL:vector(packetBytes)  ETV
attr interpolationmode  none
attr source  packetReceivedFromUpper
attr title  "packets received from higher layer, vector(packetBytes)"
vector 165  WirelessB.host[4].wlan[0].radio  transmissionState:vector  ETV
attr interpolationmode  sample-hold
attr source  transmissionStateChanged
attr title  "Radio transmission state, vector"
vector 159  WirelessB.host[4].wlan[0].mac  sentDownPk:vector(packetBytes)  ETV
attr interpolationmode  none
attr source  packetSentToLower
attr title  "packets sent to lower layer, vector(packetBytes)"
vector 87  WirelessB.host[1].wlan[0].mac  rcvdPkFromLL:vector(packetBytes)  ETV
attr interpolationmode  none
attr source  packetReceivedFromLower
attr title  "packets received from lower layer, vector(packetBytes)"
vector 84  WirelessB.host[1].wlan[0].mac  passedUpPk:vector(packetBytes)  ETV
attr interpolationmode  none
attr source  packetSentToUpper
attr title  "packets passed to higher layer, vector(packetBytes)"
vector 80  WirelessB.host[1].wlan[0].queue  rcvdPk:vector(packetBytes)  ETV
attr interpolationmode  none
attr title  "received packets, vector(packetBytes)"
vector 82  WirelessB.host[1].wlan[0].queue  queueingTime:vector  ETV
attr interpolationmode  none
attr title  "queueing time, vector"
vector 86  WirelessB.host[1].wlan[0].mac  rcvdPkFromHL:vector(packetBytes)  ETV
attr interpolationmode  none
attr source  packetReceivedFromUpper
attr title  "packets received from higher layer, vector(packetBytes)"
vector 91  WirelessB.host[1].wlan[0].radio  transmissionState:vector  ETV
attr interpolationmode  sample-hold
attr source  transmissionStateChanged
attr title  "Radio transmission state, vector"
vector 85  WirelessB.host[1].wlan[0].mac  sentDownPk:vector(packetBytes)  ETV
attr interpolationmode  none
attr source  packetSentToLower
attr title  "packets sent to lower layer, vector(packetBytes)"
vector 68  WirelessB.host[0].wlan[0].mac  rcvdPkFromLL:vector(packetBytes)  ETV
attr interpolationmode  none
attr source  packetReceivedFromLower
attr title  "packets received from lower layer, vector(packetBytes)"
vector 65  WirelessB.host[0].wlan[0].mac  passedUpPk:vector(packetBytes)  ETV
attr interpolationmode  none
attr source  packetSentToUpper
attr title  "packets passed to higher layer, vector(packetBytes)"
vector 61  WirelessB.host[0].wlan[0].queue  rcvdPk:vector(packetBytes)  ETV
attr interpolationmode  none
attr title  "received packets, vector(packetBytes)"
vector 63  WirelessB.host[0].wlan[0].queue  queueingTime:vector  ETV
attr interpolationmode  none
attr title  "queueing time, vector"
vector 67  WirelessB.host[0].wlan[0].mac  rcvdPkFromHL:vector(packetBytes)  ETV
attr interpolationmode  none
attr source  packetReceivedFromUpper
attr title  "packets received from higher layer, vector(packetBytes)"
vector 72  WirelessB.host[0].wlan[0].radio  transmissionState:vector  ETV
attr interpolationmode  sample-hold
attr source  transmissionStateChanged
attr title  "Radio transmission state, vector"
vector 66  WirelessB.host[0].wlan[0].mac  sentDownPk:vector(packetBytes)  ETV
attr interpolationmode  none
attr source  packetSentToLower
attr title  "packets sent to lower layer, vector(packetBytes)"
vector 162  WirelessB.host[4].wlan[0].mac  droppedPkNotForUs:vector(packetBytes)  ETV
attr interpolationmode  none
attr source  dropPkNotForUs
attr title  "packets dropped/not for us, vector(packetBytes)"
vector 88  WirelessB.host[1].wlan[0].mac  droppedPkNotForUs:vector(packetBytes)  ETV
attr interpolationmode  none
attr source  dropPkNotForUs
attr title  "packets dropped/not for us, vector(packetBytes)"
0	0	0	0
2	176	2.002185736914	-0.004004371473828
2	200	2.002611736914	-0.004006501473828
2	201	2.002611840436	-0.004006501680872
2	228	2.003005840436	-0.004008471680872
2	233	2.003005886732	-0.004008471773464
2	248	2.003065317309	-0.004008768926349
2	261	2.003491317309	-0.004051368926349
2	270	2.003491590214	-0.004051370290874
2	295	2.003885590214	-0.004055310290874
2	427	2.020119590214	-0.005678710290874
2	466	2.32105271129	-0.006280576533026
2	487	2.32147871129	-0.006282706533026
2	490	2.321478763803	-0.006282706638052
2	516	2.321872763803	-0.006284676638052
2	526	2.321873414837	-0.00628467794012
2	544	2.338107414837	-0.00636584794012
2	659	4	-0.009689633110446
2	698	4.016234	-0.011313033110446
2	729	4.016234831423	-0.011313037267561
2	759	4.101626069572	-0.011483819743859
2	774	4.102020069572	-0.011485789743859
2	894	6	-0.015281749604715
2	948	6.016234	-0.016905149604715
2	964	6.016234446239	-0.01690515183591
2	1005	6.320511101833	-0.017513705147098
2	1020	6.320937101833	-0.017515835147098
2	1057	6.803264839153	-0.018480490621738
2	1072	6.803690839153	-0.018482620621738
2	1125	7.441045284298	-0.019757329512028
2	1140	7.441471284298	-0.019759459512028
2	1203	8	-0.020876516943432
2	1231	8.016234	-0.022499916943432
2	1247	8.016234383375	-0.022499918860307
2	1382	10	-0.026467450093557
2	1408	10.016234	-0.028090850093557
2	1420	10.016234323636	-0.028090851711737
2	1452	10.100795168672	-0.028259973401809
2	1470	10.101189168672	-0.028263913401809
2	1510	10.403374722991	-0.028868284510447
2	1532	10.403800722991	-0.028870414510447
2	1534	10.40380073675	-0.028870414537965
2	1561	10.40419473675	-0.028872384537965
2	1572	10.404195329706	-0.028872385723877
2	1594	10.420429329706	-0.028953555723877
2	1601	10.420429633393	-0.028953556331251
2	1624	10.436663633393	-0.029034726331251
2	1631	10.436663937092	-0.029034726938649
2	1650	10.452897937092	-0.029115896938649
2	1759	12	-0.032210101064465
2	1812	12.016234	-0.033833501064465
2	1834	12.01623499464	-0.033833506037665
2	1851	12.101843625829	-0.034004723300043
2	1864	12.102237625829	-0.034044123300043
2	1900	12.103313631142	-0.034046275310669
2	1915	12.103707631142	-0.034048245310669
2	1937	12.320485767441	-0.034481801583267
2	1952	12.320911767441	-0.034486061583267
2	1974	12.320912232945	-0.034486062514275
2	1999	12.321306232945	-0.034490002514275
2	2002	12.321306396996	-0.034490002842377
2	2076	12.325101491974	-0.034527953792157
2	2089	12.325527491974	-0.034570553792157
2	2107	12.325771869322	-0.034571775678897
2	2119	12.326197869322	-0.034576035678897
2	2136	12.337540396996	-0.034632748317267
2	2159	12.425697361777	-0.034809062246829
2	2174	12.426091361777	-0.034813002246829
2	2300	14.00225601968	-0.037965331562635
2	2315	14.00268201968	-0.037969591562635
2	2343	14.002782170376	-0.037969791864027
2	2354	14.002877958625	-0.037970749746517
2	2401	14.003303958625	-0.038013349746517
2	2458	14.003729958625	-0.038055949746517
2	2472	14.003730428283	-0.038055950685833
2	2505	14.004124428283	-0.038059890685833
2	2597	14.020358428283	-0.039683290685833
2	2626	14.105279789218	-0.039853133407703
2	2644	14.105737789218	-0.039857713407703
2	2658	14.108715605647	-0.039863669040561
2	2671	14.109109605647	-0.039903069040561
2	2745	14.323462578151	-0.040331774985569
2	2760	14.323888578151	-0.040336034985569
2	2787	14.325215932769	-0.040338689694805
2	2802	14.325641932769	-0.040342949694805
2	2827	14.326721804738	-0.040345109438743
2	2849	14.327147804738	-0.040349369438743
2	2860	14.327148111787	-0.040349370052841
2	2882	14.327542111787	-0.040353310052841
2	2898	14.327957706204	-0.040354141241675
2	2909	14.328214090971	-0.040356705089345
2	2952	14.328640090971	-0.040399305089345
2	2965	14.328898639428	-0.04040059783163
2	2997	14.428004487728	-0.04059880952823
2	3015	14.428398487728	-0.04060274952823
2	3084	14.804211919702	-0.041354376392178
2	3103	14.804637919702	-0.041358636392178
2	3121	14.804638148994	-0.041358636850762
2	3146	14.805032148994	-0.041362576850762
2	3149	14.805032330015	-0.041362577212804
2	3197	14.807873790395	-0.041390991816604
2	3225	14.808299790395	-0.041433591816604
2	3256	14.821266330015	-0.041498424514704
2	3279	14.907021432159	-0.041669934718992
2	3294	14.907479432159	-0.041674514718992
2	3428	16.00002347741	-0.043859602809494
2	3441	16.00044947741	-0.043902202809494
2	3472	16.000732402555	-0.043902768659784
2	3484	16.001158402555	-0.043907028659784
2	3515	16.004006875391	-0.043912725605456
2	3530	16.004432875391	-0.043916985605456
2	3551	16.004547485252	-0.043917214825178
2	3579	16.004973485252	-0.043959814825178
2	3600	16.005260870138	-0.043961251749608
2	3635	16.322880977603	-0.044596491964538
2	3647	16.323306977603	-0.044600751964538
2	3675	16.323780533457	-0.044601699076246
2	3688	16.324206533457	-0.044644299076246
2	3717	16.325287468994	-0.04464646094732
2	3730	16.325713468994	-0.04468906094732
2	3756	16.325714174007	-0.044689062357346
2	3775	16.326108174007	-0.044693002357346
2	3794	16.326267561734	-0.0446933211328
2	3824	16.326693561734	-0.0446975811328
2	3841	16.326829286355	-0.044698259755905
2	3868	16.327255286355	-0.044702519755905
2	3885	16.330565946161	-0.044709141075517
2	3898	16.330959946161	-0.044748541075517
2	3914	16.330960327886	-0.044748541838967
2	3940	16.347194327886	-0.044910881838967
2	3972	16.363428327886	-0.046534281838967
2	4016	16.803497396387	-0.047414419975969
2	4029	16.803923396387	-0.047457019975969
2	4099	17.44058100955	-0.048730335202295
2	4112	17.44100700955	-0.048772935202295
2	4144	17.44249487179	-0.048775910926775
2	4159	17.44292087179	-0.048780170926775
2	4226	18.000000187006	-0.049894329557207
2	4238	18.016234187006	-0.050056669557207
2	4312	18.401676281708	-0.050827553746611
2	4336	18.402070281708	-0.050829523746611
2	4546	20.000000205724	-0.054025383594643
2	4571	20.016234205724	-0.054187723594643
2	4611	20.101152872378	-0.054357560927951
2	4626	20.101546872378	-0.054361500927951
2	4661	20.401974346461	-0.054962355876117
2	4674	20.402400346461	-0.055004955876117
2	4706	20.40452024161	-0.055009195666415
2	4721	20.40494624161	-0.055013455666415
2	4856	22.003301111879	-0.058210165406953
2	4871	22.003727111879	-0.058214425406953
2	4895	22.005167258614	-0.058217305700423
2	4910	22.005593258614	-0.058221565700423
2	4931	22.005644423009	-0.058221668029213
2	4944	22.006070423009	-0.058264268029213
2	4970	22.006071022891	-0.058264269228977
2	4989	22.006465022891	-0.058268209228977
2	5006	22.00747321973	-0.058270225622655
2	5018	22.00789921973	-0.058274485622655
2	5046	22.008119953268	-0.058274927089731
2	5061	22.008545953268	-0.058279187089731
2	5079	22.00933664917	-0.058280768481535
2	5092	22.00973064917	-0.058320168481535
2	5109	22.009731137829	-0.058320169458853
2	5141	22.025965137829	-0.058482509458853
2	5172	22.042199137829	-0.060105909458853
2	5293	23.364030969959	-0.062749573123113
2	5306	23.364456969959	-0.062792173123113
2	5335	23.364457847799	-0.062792174878793
2	5353	23.364851847799	-0.062796114878793
2	5500	23.381085847799	-0.064419514878793
2	5521	23.464851847799	-0.064587046878793
2	5536	23.481085847799	-0.066210446878793
2	5547	23.481086288988	-0.066210447761171
2	5570	23.497320288988	-0.067833847761171
2	5581	23.497320730543	-0.067833848644281
2	5607	23.513554730543	-0.069457248644281
2	5618	23.513555172464	-0.069457249528123
2	5640	23.513949172464	-0.069496649528123
2	5714	24.000000294578	-0.070468751772351
2	5756	24.003077797837	-0.070499526804941
2	5769	24.003503797837	-0.070542126804941
2	5787	24.016234294578	-0.070605779288646
2	5811	24.104240338568	-0.070781791376626
2	5826	24.104698338568	-0.070786371376626
2	5858	24.322056983622	-0.071221088666734
2	5871	24.322482983622	-0.071263688666734
2	5903	24.322649702468	-0.071264022104426
2	5945	24.323075702468	-0.071268282104426
2	5962	24.323183107071	-0.071268819127441
2	5999	24.323609107071	-0.071273079127441
2	6022	24.32451948689	-0.071274899887079
2	6037	24.32494548689	-0.071279159887079
2	6095	24.802267713401	-0.072233804340101
2	6138	24.802693713401	-0.072276404340101
2	6167	24.802777487198	-0.072276571887695
2	6227	24.803203487198	-0.072280831887695
2	6240	24.803372919998	-0.072281679051695
2	6259	24.803848125007	-0.072282629461713
2	6274	24.804274125007	-0.072286889461713
2	6295	24.80427464408	-0.072286890499859
2	6313	24.804521780431	-0.072288126181614
2	6342	24.804947780431	-0.072292386181614
2	6414	24.90687982942	-0.072496250279592
2	6432	24.90733782942	-0.072498540279592
2	6483	25.440999982627	-0.073565864586006
2	6496	25.441425982627	-0.073608464586006
2	6525	25.441519179123	-0.073608650978998
2	6540	25.441945179123	-0.073612910978998
2	6558	25.442281586481	-0.073613583793714
2	6588	25.442707586481	-0.073617843793714
2	6601	25.442749709989	-0.073618054411254
2	6620	25.445395182036	-0.073623345355348
2	6635	25.445821182036	-0.073627605355348
2	6658	25.445821710145	-0.073627606411566
2	6678	25.446215710145	-0.073629576411566
2	6690	25.450936575957	-0.07363901814319
2	6703	25.451330575957	-0.07364295814319
2	6739	25.467564575957	-0.07526635814319
2	6754	25.467565287147	-0.07526635956557
2	6774	25.483799287147	-0.07542869956557
2	6836	26	-0.076461100991276
2	6904	26.016234	-0.078084500991276
2	6927	26.101189464075	-0.078254411919426
2	6940	26.101647464075	-0.078300211919426
2	7007	26.324671431725	-0.078746259854726
2	7022	26.325097431725	-0.078750519854726
2	7067	26.80267854023	-0.079705682071736
2	7082	26.80310454023	-0.079709942071736
2	7172	27.443651006142	-0.08099103500356
2	7187	27.444077006142	-0.08099529500356
2	7226	27.445126816868	-0.080997394625012
2	7256	27.445552816868	-0.080999524625012
2	7268	27.445636771132	-0.08099969253354
2	7283	27.446062771132	-0.08100395253354
2	7304	27.446068111479	-0.081003963214234
2	7318	27.446494111479	-0.081046563214234
2	7341	27.446494711821	-0.081046564414918
2	7360	27.446888711821	-0.081050504414918
2	7377	27.449760774132	-0.08105624853954
2	7389	27.450186774132	-0.08106050853954
2	7411	27.451739895245	-0.081063614781766
2	7424	27.452133895245	-0.081103014781766
2	7441	27.452134687781	-0.081103016366838
2	7467	27.468368687781	-0.081265356366838
2	7495	27.484602687781	-0.082888756366838
2	7564	28.0000004134	-0.083919551818076
2	7576	28.003481717429	-0.083954364858366
2	7589	28.003907717429	-0.083996964858366
2	7610	28.0162344134	-0.084058598338221
2	7632	28.10308870624	-0.084232306923901
2	7647	28.10354670624	-0.084236886923901
2	7675	28.320123393644	-0.084670040298709
2	7688	28.320549393644	-0.084712640298709
2	7717	28.320886252157	-0.084713314015735
2	7732	28.321312252157	-0.084717574015735
2	7750	28.322818724915	-0.084720586961251
2	7765	28.323244724915	-0.084724846961251
2	7787	28.323245318786	-0.084724848148993
2	7805	28.323639318786	-0.084726818148993
2	7817	28.323947130342	-0.084727433772105
2	7832	28.324373130342	-0.084731693772105
2	7856	28.324822811864	-0.084732593135149
2	7871	28.325248811864	-0.084736853135149
2	7892	28.327213141514	-0.084740781794449
2	7905	28.327607141514	-0.084744721794449
2	7941	28.343841141514	-0.086368121794449
2	7957	28.343841989488	-0.086368123490397
2	7976	28.360075989488	-0.086530463490397
2	8094	30	-0.089810311511421
2	8134	30.016234	-0.091433711511421
2	8157	30.102941585587	-0.091607126682595
2	8170	30.103399585587	-0.091652926682595
2	8190	30.103400224021	-0.091652927959463
2	8211	30.103794224021	-0.091656867959463
2	8240	30.32415573014	-0.092097590971701
2	8255	30.32458173014	-0.092099720971701
2	8271	30.327180325154	-0.092104918161729
2	8289	30.327606325154	-0.092109178161729
2	8313	30.327607183788	-0.092109179878997
2	8328	30.328033183788	-0.092111309878997
2	8336	30.329165626257	-0.092113574763935
2	8349	30.329591626257	-0.092156174763935
2	8369	30.329592268937	-0.092156176049295
2	8402	30.329986268937	-0.092160116049295
2	8415	30.330159842957	-0.092160983919395
2	8471	30.432991667206	-0.092366647567893
2	8486	30.433449667206	-0.092371227567893
2	8524	30.804764461825	-0.093113857157131
2	8539	30.805190461825	-0.093115987157131
2	8554	30.807471151232	-0.093120548535945
2	8572	30.807897151232	-0.093124808535945
2	8592	30.809044622578	-0.093127103478637
2	8608	30.809470622578	-0.093131363478637
2	8633	30.810314780355	-0.093133051794191
2	8648	30.810740780355	-0.093135181794191
2	8656	30.811840848339	-0.093137381930159
2	8669	30.812266848339	-0.093179981930159
2	8695	30.813125178165	-0.093181698589811
2	8710	30.813551178165	-0.093185958589811
2	8738	30.813945178165	-0.093225358589811
2	8753	30.813945830419	-0.093225359894319
2	8772	30.814339830419	-0.093229299894319
2	8790	30.814617800629	-0.093229855834739
2	8805	30.815043800629	-0.093234115834739
2	8824	30.816930833976	-0.093237889901433
2	8837	30.817324833976	-0.093277289901433
2	8863	30.820883593445	-0.093284407420371
2	8883	30.821277593445	-0.093288347420371
2	8889	30.821277801723	-0.093288347836927
2	8921	30.837511801723	-0.093369517836927
2	8924	30.837511842522	-0.093369517918525
2	8946	30.853745842522	-0.093531857918525
2	8957	30.853746105134	-0.093531858443749
2	8980	30.869980105134	-0.093694198443749
2	9080	32.000000542856	-0.095954239319193
2	9090	32.002933921727	-0.095968906213548
2	9103	32.003359921727	-0.096011506213548
2	9131	32.016234542856	-0.096075879319193
2	9133	32.016234588384	-0.096075879410249
2	9155	32.032468588384	-0.096238219410249
2	9166	32.032468856191	-0.096238219945863
2	9189	32.048702856191	-0.096400559945863
2	9216	32.320660340548	-0.096944474914577
2	9229	32.321086340548	-0.096987074914577
2	9274	32.8035842984	-0.097952070830281
2	9287	32.8040102984	-0.097994670830281
2	9313	32.80599129488	-0.097998632823241
2	9328	32.80641729488	-0.098002892823241
2	9350	32.806838306216	-0.098003734845913
2	9372	32.807264306216	-0.098007994845913
2	9391	32.807264907459	-0.098007996048399
2	9418	32.807533186535	-0.098009337443779
2	9456	32.807959186535	-0.098013597443779
2	9476	32.808288922161	-0.098014256915031
2	9491	32.808714922161	-0.098016386915031
2	9521	32.909042973474	-0.098217043017657
2	9536	32.909564973474	-0.098219653017657
2	9607	33.440152264829	-0.099280827600367
2	9620	33.440578264829	-0.099323427600367
2	9647	33.441042167509	-0.099324355405727
2	9669	33.441468167509	-0.099328615405727
2	9688	33.441468773052	-0.099328616616813
2	9705	33.441862773052	-0.099330586616813
2	9715	33.444313950553	-0.099335488971815
2	9742	33.444739950553	-0.099339748971815
2	9756	33.444831433979	-0.099340206388945
2	9773	33.44552143149	-0.099341586383967
2	9787	33.44591543149	-0.099345526383967
2	9911	33.46214943149	-0.10096892638397
2	9934	33.545997579646	-0.10113662268028
2	9947	33.546519579646	-0.10118882268028
2	10016	34.00000060948	-0.10209578473995
2	10026	34.004165190473	-0.10211660764491
2	10039	34.004591190473	-0.10215920764491
2	10062	34.008109394297	-0.10217679866403
2	10077	34.008535394297	-0.10218105866403
2	10096	34.00951340394	-0.10218594871225
2	10111	34.00993940394	-0.10219020871225
2	10139	34.01623460948	-0.10222168473995
2	10142	34.016234665473	-0.10222168485193
2	10168	34.032468665473	-0.10238402485193
2	10173	34.032468941807	-0.1023840254046
2	10196	34.048702941807	-0.1025463654046
2	10224	34.321092014241	-0.10309114354947
2	10237	34.321518014241	-0.10313374354947
2	10260	34.322677261138	-0.10313606204326
2	10275	34.323103261138	-0.10314032204326
2	10301	34.325565426207	-0.1031452463734
2	10326	34.325991426207	-0.1031473763734
2	10336	34.325991827429	-0.10314737717585
2	10348	34.326326444577	-0.10314905026159
2	10377	34.326752444577	-0.10315331026159
2	10410	34.429534570558	-0.10335887451355
2	10428	34.429992570558	-0.10336116451355
2	10453	34.800971711098	-0.10410312279463
2	10466	34.801397711098	-0.10414572279463
2	10489	34.801464647971	-0.10414585666837
2	10504	34.801890647971	-0.10415011666837
2	10525	34.804487694276	-0.10415531076098
2	10540	34.804913694276	-0.10415957076098
2	10568	34.806203013324	-0.10416214939908
2	10593	34.806629013324	-0.10416427939908
2	10603	34.806629411762	-0.10416428019596
2	10621	34.807023411762	-0.10416625019596
2	10633	34.809823488402	-0.10417185034924
2	10680	34.810615277992	-0.10417580929719
2	10695	34.812092777593	-0.10417876429639
2	10713	34.812518777593	-0.10418089429639
2	10806	34.911710487758	-0.10437927771672
2	10827	34.912168487758	-0.10438156771672
2	10871	35.440603284982	-0.10543843731117
2	10884	35.441029284982	-0.10548103731117
2	10907	35.441519279077	-0.10548201729936
2	10922	35.441945279077	-0.10548627729936
2	10943	35.441946086046	-0.10548627891329
2	10958	35.442151496941	-0.10548730596777
2	10984	35.442577496941	-0.10549156596777
2	11016	35.546810684248	-0.10570003234238
2	11037	35.547204684248	-0.10570200234238
2	11089	36.000000676872	-0.10660759432763
2	11109	36.016234676872	-0.10668876432763
2	11113	36.016234745543	-0.10668876446497
2	11138	36.032468745543	-0.10676993446497
2	11143	36.032469029729	-0.10676993503334
2	11166	36.048703029729	-0.10693227503334
2	11314	38.000000732017	-0.11083487043792
2	11334	38.016234732017	-0.11091604043792
2	11337	38.016234810191	-0.11091604059427
2	11362	38.032468810191	-0.11099721059427
2	11367	38.032469099864	-0.11099721117361
2	11390	38.048703099864	-0.11115955117361
2	11421	38.402667328381	-0.11186747963065
2	11434	38.403093328381	-0.11191007963065
2	11457	38.403828880167	-0.11191155073422
2	11472	38.404254880167	-0.11191581073422
2	11493	38.404255641092	-0.11191581225607
2	11514	38.404649641092	-0.11191778225607
2	11525	38.406946918313	-0.11192237681051
2	11540	38.407372918313	-0.11192663681051
2	11564	38.408009963744	-0.11192791090137
2	11577	38.408403963744	-0.11193185090137
2	11770	38.424637963744	-0.11355525090137
2	11790	38.508403963744	-0.11372278290137
2	11837	38.524637963744	-0.11534618290137
2	11857	38.608403963744	-0.11551371490137
2	11870	38.624637963744	-0.11713711490137
2	11875	38.624638370543	-0.11713711571497
2	11912	38.625096370543	-0.11718291571497
2	11931	38.640872777147	-0.11726179774799
2	11947	38.640873532596	-0.11726179925889
2	11970	38.657107532596	-0.11734296925889
2	12073	40.000000743026	-0.12002875567975
2	12082	40.001417594242	-0.12003583993583
2	12095	40.001843594242	-0.12007843993583
2	12118	40.0027501311	-0.12008297262012
2	12133	40.0031761311	-0.12008723262012
2	12154	40.003743855012	-0.12009007123968
2	12169	40.004169855012	-0.12009433123968
2	12193	40.016234743026	-0.12015465567975
2	12214	40.101033716709	-0.12032425362712
2	12232	40.101555716709	-0.12032686362712
2	12251	40.323893476984	-0.12077153914767
2	12264	40.324319476984	-0.12081413914767
2	12287	40.327727047964	-0.12082095428963
2	12302	40.328153047964	-0.12082521428963
2	12323	40.328556467779	-0.12082602112926
2	12338	40.328982467779	-0.12083028112926
2	12364	40.329031540834	-0.12083037927537
2	12389	40.329457540834	-0.12083250927537
2	12402	40.329458162017	-0.12083251051773
2	12419	40.329852162017	-0.12083448051773
2	12433	40.330022831796	-0.12083482185729
2	12454	40.330448831796	-0.12083695185729
2	12468	40.330822259565	-0.12083769871283
2	12510	40.331248259565	-0.12083982871283
2	12537	40.435463422328	-0.12104825903835
2	12562	40.435985422328	-0.12105086903835
2	12575	40.435986043189	-0.12105087028008
2	12594	40.436316043189	-0.12105252028008
2	12619	40.802454093084	-0.12178479637987
2	12632	40.802880093084	-0.12182739637987
2	12655	40.802881026129	-0.12182739824596
2	12689	40.803275026129	-0.12183133824596
2	12703	40.803691472404	-0.12183342047733
2	12719	40.805475034631	-0.12183698760179
2	12734	40.805901034631	-0.12184124760179
2	12759	40.810698908948	-0.12185084335042
2	12785	40.811124908948	-0.12185297335042
2	12793	40.811125243472	-0.12185297401947
2	12812	40.811519243472	-0.12185494401947
2	12836	40.902881024113	-0.12203766758075
2	12851	40.903275024113	-0.12204160758075
2	12908	40.919509024113	-0.12366500758075
2	12942	41.00595591161	-0.12383790135574
2	12955	41.00641391161	-0.12388370135574
2	13048	42.000644302838	-0.1258721621382
2	13061	42.001070302838	-0.1259147621382
2	13090	42.001629181547	-0.12591587989562
2	13108	42.002055181547	-0.12591800989562
2	13135	42.003034236918	-0.12591996800636
2	13168	42.003460236918	-0.12592422800636
2	13190	42.00585307586	-0.12592901368424
2	13205	42.00627907586	-0.12593327368424
2	13227	42.006575164901	-0.12593386586233
2	13245	42.007001164901	-0.12593812586233
2	13288	42.321995887027	-0.12656811530658
2	13306	42.322421887027	-0.12657024530658
2	13348	42.324385654841	-0.12657417284221
2	13376	42.324811654841	-0.12661677284221
2	13399	42.324979478481	-0.12661761196041
2	13443	42.328310310031	-0.12662427362351
2	13458	42.328736310031	-0.12662853362351
2	13482	42.330375178711	-0.12663181136087
2	13497	42.330801178711	-0.12663607136087
2	13519	42.331917242066	-0.12663830348758
2	13541	42.332343242066	-0.12664256348758
2	13559	42.332343856654	-0.12664256471675
2	13604	42.332946921317	-0.12664558004007
2	13618	42.333146647132	-0.1266459794917
2	13637	42.333572647132	-0.1266481094917
2	13667	42.43350818167	-0.12684798056077
2	13685	42.43396618167	-0.12685027056077
2	13712	42.802517137133	-0.1275873724717
2	13726	42.802943137133	-0.1276299724717
2	13755	42.802955685393	-0.12762999756822
2	13773	42.803381685393	-0.12763212756822
2	13791	42.803869586979	-0.12763310337139
2	13809	42.804295586979	-0.12763523337139
2	13818	42.805732925752	-0.12763810804894
2	13833	42.806158925752	-0.12764236804894
2	13855	42.806490137429	-0.12764303047229
2	13873	42.806916137429	-0.12764729047229
2	13897	42.806947751547	-0.12764735370053
2	13938	42.807373751547	-0.12764948370053
2	13944	42.807374059788	-0.12764948431701
2	13974	42.80771227346	-0.12765117538537
2	13983	42.807713209749	-0.12765118474826
2	14025	42.808139209749	-0.12769378474826
2	14045	42.810060930655	-0.12769762819007
2	14064	42.810486930655	-0.12770188819007
2	14078	42.810487201567	-0.12770188873189
2	14099	42.810881201567	-0.12770582873189
2	14122	42.812724529528	-0.12770951538782
2	14144	42.813150529528	-0.12771164538782
2	14157	42.814519751327	-0.12771438383141
2	14170	42.814913751327	-0.12771832383141
2	14192	42.816691220694	-0.12772187877015
2	14212	42.817085220694	-0.12772581877015
2	14226	42.817085956592	-0.12772582024194
2	14255	42.833319956592	-0.12780699024194
2	14258	42.833320015854	-0.12780699036047
2	14283	42.849554015854	-0.12796933036047
2	14297	42.849554316778	-0.12796933096232
2	14346	42.865788316778	-0.12813167096232
2	14369	42.907374057458	-0.12821484244368
2	14387	42.907800057458	-0.12821697244368
2	14402	42.910419945277	-0.12822221221931
2	14420	42.910877945277	-0.12822450221931
2	14465	43.444347442666	-0.12929144121409
2	14478	43.444773442666	-0.12933404121409
2	14504	43.445053995371	-0.1293346023195
2	14531	43.445479995371	-0.1293388623195
2	14545	43.445660090107	-0.12933976279318
2	14611	44.003073099396	-0.13045458881176
2	14629	44.003499099396	-0.13045671881176
2	14641	44.00611100509	-0.13046194262315
2	14656	44.00653700509	-0.13046620262315
2	14685	44.007697178162	-0.13046852296929
2	14703	44.008123178162	-0.13047065296929
2	14732	44.320341149423	-0.13109508891181
2	14750	44.320767149423	-0.13109721891181
2	14762	44.320929527158	-0.13109754366728
2	14777	44.321355527158	-0.13110180366728
2	14801	44.321416015687	-0.13110192464434
2	14820	44.321842015687	-0.13110618464434
2	14834	44.321842300099	-0.13110618521317
2	14855	44.322236300099	-0.13111012521317
2	14877	44.323490606283	-0.13111263382553
2	14895	44.323916606283	-0.13111476382553
2	14908	44.324256892292	-0.13111544439755
2	14951	44.324723813667	-0.13111777900443
2	14974	44.325210972418	-0.13111875332193
2	15002	44.325636972418	-0.13116135332193
2	15028	44.327144553066	-0.13116436848323
2	15041	44.327538553066	-0.13116830848323
2	15060	44.329584442317	-0.13117240026173
2	15072	44.329978442317	-0.13117634026173
2	15096	44.329979256756	-0.13117634189061
2	15127	44.346213256756	-0.13125751189061
2	15128	44.346213307661	-0.13125751199242
2	15149	44.362447307661	-0.13141985199242
2	15167	44.362447614977	-0.13141985260705
2	15217	44.378681614977	-0.13158219260705
2	15344	46.000353033135	-0.13482553544336
2	15359	46.000779033135	-0.13482766544336
2	15376	46.001986569909	-0.13483008051691
2	15394	46.002412569909	-0.13483221051691
2	15422	46.323418665736	-0.13547422270857
2	15437	46.323844665736	-0.13547635270857
2	15454	46.327157621326	-0.13548297861975
2	15472	46.327583621326	-0.13548510861975
2	15517	46.401230315916	-0.13563240200893
2	15530	46.401656315916	-0.13567500200893
2	15556	46.404826403376	-0.13568134218385
2	15583	46.405252403376	-0.13568560218385
2	15598	46.40541231088	-0.13568640172137
2	15637	46.80258734917	-0.13648075179795
2	15652	46.80301334917	-0.13648288179795
2	15669	46.807283466548	-0.1364914220327
2	15687	46.807709466548	-0.1364935520327
2	15780	47.442489204338	-0.13776311150828
2	15795	47.442915204338	-0.13776524150828
2	15812	47.445689039477	-0.13777078917856
2	15830	47.446115039477	-0.13777291917856
2	15985	49.363691132904	-0.14160807136541
2	15998	49.364117132904	-0.14165067136541
2	16027	49.365920562819	-0.14165427822524
2	16054	49.366346562819	-0.14165853822524
2	16070	49.366353473118	-0.14165857277674
2	16094	49.366779473118	-0.14166283277674
2	16114	49.368261225044	-0.14166579628059
2	16137	49.368687225044	-0.14167005628059
2	16153	49.368687456819	-0.14167005674414
2	16175	49.369081456819	-0.14167202674414
2	16188	49.369311554032	-0.14167248693857
2	16202	49.369705554032	-0.14167642693857
2	16240	49.385939554032	-0.14329982693857
2	16249	49.385939957701	-0.1432998277459
2	16286	49.402173957701	-0.1449232277459
2	16301	49.402174360883	-0.14492322976181
2	16322	49.485939957701	-0.14509076095545
2	16338	49.502173957701	-0.14671416095545
2	16347	49.502174357887	-0.14671416175582
2	16383	49.518408357887	-0.14833756175582
2	16398	49.518408757587	-0.14833756375432
2	16420	49.602174357887	-0.14850509495492
2	16433	49.602632357887	-0.14855089495492
2	16502	50.004960056221	-0.14935555035159
2	16515	50.005386056221	-0.14939815035159
2	16544	50.00652808057	-0.14940043440029
2	16586	50.00695408057	-0.14940469440029
2	16611	50.007059758297	-0.14940522278892
2	16629	50.00783437218	-0.14940677201669
2	16652	50.00826037218	-0.14941103201669
2	16663	50.008260598638	-0.14941103246961
2	16684	50.008654598638	-0.14941300246961
2	16699	50.009821746815	-0.14941533676596
2	16713	50.010215746815	-0.14941927676596
2	16747	50.026449746815	-0.15104267676596
2	16763	50.026450515455	-0.15104267830324
2	16789	50.042684515455	-0.15120501830324
2	16825	50.400569937463	-0.15192078914726
2	16843	50.400995937463	-0.15192291914726
2	16893	50.405404847065	-0.15193173696646
2	16911	50.405830847065	-0.15193386696646
2	17018	52	-0.15512220527233
2	17031	52.016234	-0.15674560527233
2	17047	52.016234653133	-0.1567456065786
2	17070	52.032468653133	-0.1569079465786
2	17167	53.362247357674	-0.15956750398768
2	17185	53.362673357674	-0.15956963398768
2	17202	53.364154804971	-0.15957259688227
2	17220	53.364580804971	-0.15957472688227
2	17310	54	-0.16084556527233
2	17323	54.016234	-0.16246896527233
2	17339	54.016234544301	-0.16246896636093
2	17363	54.032468544301	-0.16263130636093
2	17493	56	-0.16656636927233
2	17506	56.016234	-0.16818976927233
2	17522	56.01623444809	-0.16818977016851
2	17546	56.03246844809	-0.16835211016851
2	17685	58	-0.17228717327233
2	17698	58.016234	-0.17391057327233
2	17712	58.016234392556	-0.17391057405744
2	17738	58.032468392556	-0.17407291405744
2	17870	60	-0.17800797727233
2	17883	60.016234	-0.17963137727233
2	17897	60.016234370368	-0.17963137801307
2	17923	60.032468370368	-0.17979371801307
2	18053	62	-0.18372878127233
2	18066	62.016234	-0.18535218127233
2	18080	62.016234356816	-0.18535218198596
2	18105	62.032468356816	-0.18551452198596
2	18242	64	-0.18944958527233
2	18255	64.016234	-0.19107298527233
2	18267	64.016234352892	-0.19107298597811
2	18294	64.032468352892	-0.19123532597811
2	18429	66	-0.19517038927233
2	18442	66.016234	-0.19679378927233
2	18454	66.016234358916	-0.19679378999016
2	18481	66.032468358916	-0.19695612999016
2	18613	68	-0.20089119327233
2	18632	68.016234	-0.20251459327233
2	18644	68.016234374407	-0.20251459402114
2	18672	68.032468374407	-0.20267693402114
2	18801	70	-0.20661199727233
2	18814	70.016234	-0.20823539727233
2	18828	70.016234398262	-0.20823539806885
2	18853	70.032468398262	-0.20839773806885
2	18990	72	-0.21233280127233
2	19003	72.016234	-0.21395620127233
2	19018	72.016234429087	-0.2139562021305
2	19046	72.032468429087	-0.2141185421305
2	19174	74	-0.21805360527233
2	19187	74.016234	-0.21967700527233
2	19206	74.0162344655	-0.21967700620333
2	19227	74.0324684655	-0.21983934620333
2	19357	76	-0.22377440927233
2	19370	76.016234	-0.22539780927233
2	19388	76.016234506297	-0.22539781028492
2	19409	76.032468506297	-0.22556015028492
2	19540	78	-0.22949521327233
2	19553	78.016234	-0.23111861327233
2	19571	78.016234550505	-0.23111861437334
2	19592	78.032468550505	-0.23128095437334
2	19723	80	-0.23521601727233
2	19736	80.016234	-0.23683941727233
2	19754	80.016234597366	-0.23683941846706
2	19773	80.032468597366	-0.23700175846706
2	19906	82	-0.24093682127233
2	19919	82.016234	-0.24256022127233
2	19937	82.016234646304	-0.24256022256494
2	19956	82.032468646304	-0.24272256256494
2	20088	84	-0.24665762527233
2	20101	84.016234	-0.24828102527233
2	20118	84.01623469688	-0.24828102666609
2	20137	84.03246869688	-0.24844336666609
2	20158	84.118885142854	-0.24861619955804
2	20173	84.119279142854	-0.24862013955804
2	20299	86.00446431123	-0.25239050989479
2	20312	86.00489031123	-0.25243310989479
2	20342	86.004891052468	-0.25243311137727
2	20359	86.005285052468	-0.25243705137727
2	20506	86.021519052468	-0.25406045137727
2	20528	86.108836736609	-0.25423508674555
2	20541	86.109230736609	-0.25427448674555
2	20682	88.004610557318	-0.25806524638697
2	20695	88.005036557318	-0.25810784638697
2	20724	88.00580549665	-0.25810938426563
2	20739	88.00623149665	-0.25811364426563
2	20757	88.00684288908	-0.25811486705049
2	20772	88.00726888908	-0.25811912705049
2	20789	88.007550886623	-0.25811969104558
2	20801	88.007976886623	-0.25812395104558
2	20834	88.324530859204	-0.25875705899074
2	20847	88.324956859204	-0.25879965899074
2	20876	88.32600641914	-0.25880175811061
2	20906	88.32643241914	-0.25880601811061
2	20918	88.32677896642	-0.25880775084701
2	20934	88.328068589104	-0.25881033009238
2	20949	88.328494589104	-0.25881459009238
2	20989	88.800497081964	-0.2597585950781
2	21002	88.800923081964	-0.2598011950781
2	21031	88.803809359128	-0.25980696763243
2	21046	88.804235359128	-0.25981122763243
2	21064	88.804283690627	-0.25981132429542
2	21094	88.804709690627	-0.25981558429542
2	21106	88.804826178516	-0.25981616673487
2	21166	89.441944337166	-0.26109040305217
2	21179	89.442370337166	-0.26113300305217
2	21208	89.442384432304	-0.26113303124244
2	21223	89.442810432304	-0.26113729124244
2	21241	89.44537313857	-0.26114241665498
2	21271	89.44579913857	-0.26114667665498
2	21283	89.446033038868	-0.26114784615647
2	21479	92.402203330466	-0.26706018673966
2	21492	92.402629330466	-0.26710278673966
2	21518	92.405873242873	-0.26710927456448
2	21545	92.406299242873	-0.26711353456448
2	21558	92.406481403104	-0.26711444536563
2	21572	92.406698314905	-0.26711487918923
2	21584	92.407124314905	-0.26711913918923
2	21774	95.362210178152	-0.27302931091573
2	21787	95.362636178152	-0.27307191091573
2	21809	95.365236617684	-0.27307711179479
2	21821	95.365662617684	-0.27308137179479
2	21839	95.367592409103	-0.27308523137763
2	21851	95.368018409103	-0.27308949137763
2	21873	95.369934429024	-0.27309332341747
2	21888	95.370360429024	-0.27309545341747
4	140	2	2000
4	631	4	2000
4	867	6	2000
4	1176	8	2000
4	1355	10	2000
4	1732	12	2000
4	2270	14	2000
4	3401	16	2000
4	4198	18	2000
4	4514	20	2000
4	4813	22	2000
4	5686	24	2000
4	6811	26	2000
4	7536	28	2000
4	8069	30	2000
4	9050	32	2000
4	9986	34	2000
4	11060	36	2000
4	11285	38	2000
4	12044	40	2000
4	13024	42	2000
4	14581	44	2000
4	15314	46	2000
4	15892	48	2000
4	16478	50	2000
4	16995	52	2000
4	17288	54	2000
4	17471	56	2000
4	17663	58	2000
4	17848	60	2000
4	18031	62	2000
4	18220	64	2000
4	18407	66	2000
4	18591	68	2000
4	18779	70	2000
4	18968	72	2000
4	19152	74	2000
4	19335	76	2000
4	19518	78	2000
4	19701	80	2000
4	19884	82	2000
4	20066	84	2000
4	20276	86	2000
4	20659	88	2000
4	21320	90	2000
4	21439	92	2000
4	21682	94	2000
4	21927	96	2000
4	22040	98	2000
4	22162	100	2000
7	160	2	2008
7	650	4	2008
7	886	6	2008
7	1195	8	2008
7	1374	10	2008
7	1751	12	2008
7	2289	14	2008
7	3420	16	2008
7	4217	18	2008
7	4533	20	2008
7	4831	22	2008
7	5704	24	2008
7	6829	26	2008
7	7554	28	2008
7	8087	30	2008
7	9068	32	2008
7	10004	34	2008
7	11077	36	2008
7	11301	38	2008
7	12060	40	2008
7	13040	42	2008
7	14597	44	2008
7	15330	46	2008
7	15908	48	2008
7	16494	50	2008
7	17011	52	2008
7	17303	54	2008
7	17486	56	2008
7	17678	58	2008
7	17863	60	2008
7	18046	62	2008
7	18235	64	2008
7	18422	66	2008
7	18606	68	2008
7	18794	70	2008
7	18983	72	2008
7	19167	74	2008
7	19350	76	2008
7	19533	78	2008
7	19716	80	2008
7	19899	82	2008
7	20081	84	2008
7	20291	86	2008
7	20674	88	2008
7	21335	90	2008
7	21454	92	2008
7	21697	94	2008
7	21942	96	2008
7	22055	98	2008
7	22177	100	2008
15	247	2.003065317309	52
15	299	2.003885590214	2028
15	656	4	2028
15	892	6	2028
15	1201	8	2028
15	1380	10	2028
15	1757	12	2028
15	1850	12.101843625829	48
15	2075	12.325101491974	52
15	2353	14.002877958625	52
15	2368	14.00302422759	52
15	2509	14.004124428283	2028
15	2657	14.108715605647	48
15	2908	14.328214090971	52
15	3196	14.807873790395	52
15	3427	16.00002347741	52
15	3550	16.004547485252	52
15	3674	16.323780533457	52
15	3716	16.325287468994	52
15	3884	16.330565946161	48
15	3943	16.347194327886	2028
15	4015	16.803497396387	52
15	4098	17.44058100955	52
15	4660	20.401974346461	52
15	4930	22.005644423009	52
15	5078	22.00933664917	48
15	5144	22.025965137829	2028
15	5292	23.364030969959	52
15	5357	23.364851847799	2028
15	5358	23.364851847799	2028
15	5359	23.364851847799	2028
15	5360	23.364851847799	2028
15	5535	23.469846082813	48
15	5755	24.003077797837	52
15	5857	24.322056983622	52
15	6094	24.802267713401	52
15	6482	25.440999982627	52
15	6707	25.451330575957	2028
15	6835	26	2028
15	6926	26.101189464075	56
15	7303	27.446068111479	52
15	7410	27.451739895245	48
15	7470	27.468368687781	2028
15	7575	28.003481717429	52
15	7674	28.320123393644	52
15	7909	28.327607141514	2028
15	8093	30	2028
15	8156	30.102941585587	56
15	8335	30.329165626257	52
15	8655	30.811840848339	52
15	8715	30.813551178165	48
15	8823	30.816930833976	48
15	9089	32.002933921727	52
15	9215	32.320660340548	52
15	9273	32.8035842984	52
15	9606	33.440152264829	52
15	9791	33.44591543149	2028
15	9933	33.545997579646	64
15	10025	34.004165190473	52
15	10223	34.321092014241	52
15	10452	34.800971711098	52
15	10870	35.440603284982	52
15	11420	38.402667328381	52
15	11581	38.408403963744	2028
15	11582	38.408403963744	2028
15	11583	38.408403963744	2028
15	11805	38.510786349763	56
15	12081	40.001417594242	52
15	12250	40.323893476984	52
15	12618	40.802454093084	52
15	12855	40.903275024113	2028
15	12941	41.00595591161	56
15	13047	42.000644302838	52
15	13347	42.324385654841	52
15	13711	42.802517137133	52
15	13982	42.807713209749	52
15	14464	43.444347442666	52
15	14973	44.325210972418	52
15	15516	46.401230315916	52
15	15984	49.363691132904	52
15	16206	49.369705554032	2028
15	16207	49.369705554032	2028
15	16208	49.369705554032	2028
15	16209	49.369705554032	2028
15	16336	49.490867414853	56
15	16501	50.004960056221	52
15	16717	50.010215746815	2028
15	17017	52	2028
15	17309	54	2028
15	17492	56	2028
15	17684	58	2028
15	17869	60	2028
15	18052	62	2028
15	18241	64	2028
15	18428	66	2028
15	18612	68	2028
15	18800	70	2028
15	18989	72	2028
15	19173	74	2028
15	19356	76	2028
15	19539	78	2028
15	19722	80	2028
15	19905	82	2028
15	20087	84	2028
15	20298	86.00446431123	52
15	20363	86.005285052468	2028
15	20527	86.108836736609	48
15	20681	88.004610557318	52
15	20833	88.324530859204	52
15	20988	88.800497081964	52
15	21165	89.441944337166	52
15	21478	92.402203330466	52
15	21773	95.362210178152	52
17	247	2.003065317309	0
17	299	2.003885590214	0
17	656	4	0
17	892	6	0
17	1201	8	0
17	1380	10	0
17	1757	12	0
17	1850	12.101843625829	0
17	2075	12.325101491974	0
17	2353	14.002877958625	0
17	2401	14.003303958625	0.000279731035
17	2509	14.004124428283	0
17	2657	14.108715605647	0
17	2908	14.328214090971	0
17	3196	14.807873790395	0
17	3427	16.00002347741	0
17	3550	16.004547485252	0
17	3674	16.323780533457	0
17	3716	16.325287468994	0
17	3884	16.330565946161	0
17	3943	16.347194327886	0
17	4015	16.803497396387	0
17	4098	17.44058100955	0
17	4660	20.401974346461	0
17	4930	22.005644423009	0
17	5078	22.00933664917	0
17	5144	22.025965137829	0
17	5292	23.364030969959	0
17	5357	23.364851847799	0
17	5520	23.464851847799	0.1
17	5546	23.481086288988	0.116234441189
17	5580	23.497320730543	0.132468882744
17	5617	23.513555172464	0.043709089651
17	5755	24.003077797837	0
17	5857	24.322056983622	0
17	6094	24.802267713401	0
17	6482	25.440999982627	0
17	6707	25.451330575957	0
17	6835	26	0
17	6926	26.101189464075	0
17	7303	27.446068111479	0
17	7410	27.451739895245	0
17	7470	27.468368687781	0
17	7575	28.003481717429	0
17	7674	28.320123393644	0
17	7909	28.327607141514	0
17	8093	30	0
17	8156	30.102941585587	0
17	8335	30.329165626257	0
17	8655	30.811840848339	0
17	8715	30.813551178165	0
17	8823	30.816930833976	0
17	9089	32.002933921727	0
17	9215	32.320660340548	0
17	9273	32.8035842984	0
17	9606	33.440152264829	0
17	9791	33.44591543149	0
17	9933	33.545997579646	0
17	10025	34.004165190473	0
17	10223	34.321092014241	0
17	10452	34.800971711098	0
17	10870	35.440603284982	0
17	11420	38.402667328381	0
17	11581	38.408403963744	0
17	11789	38.508403963744	0.1
17	11856	38.608403963744	0.2
17	11874	38.624638370543	0.11385202078
17	12081	40.001417594242	0
17	12250	40.323893476984	0
17	12618	40.802454093084	0
17	12855	40.903275024113	0
17	12941	41.00595591161	0
17	13047	42.000644302838	0
17	13347	42.324385654841	0
17	13711	42.802517137133	0
17	13982	42.807713209749	0
17	14464	43.444347442666	0
17	14973	44.325210972418	0
17	15516	46.401230315916	0
17	15984	49.363691132904	0
17	16206	49.369705554032	0
17	16248	49.385939957701	0.016234403669
17	16321	49.485939957701	0.116234403669
17	16346	49.502174357887	0.132468803855
17	16419	49.602174357887	0.111306943034
17	16501	50.004960056221	0
17	16717	50.010215746815	0
17	17017	52	0
17	17309	54	0
17	17492	56	0
17	17684	58	0
17	17869	60	0
17	18052	62	0
17	18241	64	0
17	18428	66	0
17	18612	68	0
17	18800	70	0
17	18989	72	0
17	19173	74	0
17	19356	76	0
17	19539	78	0
17	19722	80	0
17	19905	82	0
17	20087	84	0
17	20298	86.00446431123	0
17	20363	86.005285052468	0
17	20527	86.108836736609	0
17	20681	88.004610557318	0
17	20833	88.324530859204	0
17	20988	88.800497081964	0
17	21165	89.441944337166	0
17	21478	92.402203330466	0
17	21773	95.362210178152	0
18	0	0	0
18	2368	14.00302422759	1
18	2401	14.003303958625	0
18	5358	23.364851847799	1
18	5359	23.364851847799	2
18	5360	23.364851847799	3
18	5520	23.464851847799	2
18	5535	23.469846082813	3
18	5546	23.481086288988	2
18	5580	23.497320730543	1
18	5617	23.513555172464	0
18	11582	38.408403963744	1
18	11583	38.408403963744	2
18	11789	38.508403963744	1
18	11805	38.510786349763	2
18	11856	38.608403963744	1
18	11874	38.624638370543	0
18	16207	49.369705554032	1
18	16208	49.369705554032	2
18	16209	49.369705554032	3
18	16248	49.385939957701	2
18	16321	49.485939957701	1
18	16336	49.490867414853	2
18	16346	49.502174357887	1
18	16419	49.602174357887	0
19	296	2.003885590214	48
19	1471	10.101189168672	48
19	1953	12.320911767441	52
19	2175	12.426091361777	48
19	2316	14.00268201968	52
19	2506	14.004124428283	48
19	2645	14.105737789218	56
19	2761	14.323888578151	52
19	2803	14.325641932769	52
19	2850	14.327147804738	52
19	3016	14.428398487728	48
19	3104	14.804637919702	52
19	3295	14.907479432159	56
19	3485	16.001158402555	52
19	3531	16.004432875391	52
19	3648	16.323306977603	52
19	3776	16.326108174007	48
19	3941	16.347194327886	2028
19	4160	17.44292087179	52
19	4627	20.101546872378	48
19	4722	20.40494624161	52
19	4872	22.003727111879	52
19	4911	22.005593258614	52
19	4990	22.006465022891	48
19	5019	22.00789921973	52
19	5062	22.008545953268	52
19	5142	22.025965137829	2028
19	5354	23.364851847799	48
19	5827	24.104698338568	56
19	6000	24.323609107071	52
19	6038	24.32494548689	52
19	6275	24.804274125007	52
19	6541	25.441945179123	52
19	6636	25.445821182036	52
19	6704	25.451330575957	48
19	7023	26.325097431725	52
19	7083	26.80310454023	52
19	7188	27.444077006142	52
19	7284	27.446062771132	52
19	7361	27.446888711821	48
19	7390	27.450186774132	52
19	7468	27.468368687781	2028
19	7648	28.10354670624	56
19	7733	28.321312252157	52
19	7766	28.323244724915	52
19	7833	28.324373130342	52
19	7872	28.325248811864	52
19	7906	28.327607141514	48
19	8212	30.103794224021	48
19	8290	30.327606325154	52
19	8487	30.433449667206	56
19	8573	30.807897151232	52
19	8609	30.809470622578	52
19	8711	30.813551178165	52
19	8773	30.814339830419	48
19	8806	30.815043800629	52
19	9329	32.80641729488	52
19	9373	32.807264306216	52
19	9457	32.807959186535	52
19	9670	33.441468167509	52
19	9788	33.44591543149	48
19	10112	34.00993940394	52
19	10276	34.323103261138	52
19	10378	34.326752444577	52
19	10505	34.801890647971	52
19	10541	34.804913694276	52
19	10923	35.441945279077	52
19	10985	35.442577496941	52
19	11473	38.404254880167	52
19	11541	38.407372918313	52
19	11578	38.408403963744	48
19	12134	40.0031761311	52
19	12170	40.004169855012	52
19	12303	40.328153047964	52
19	12339	40.328982467779	52
19	12735	40.805901034631	52
19	12852	40.903275024113	48
19	13169	42.003460236918	52
19	13206	42.00627907586	52
19	13246	42.007001164901	52
19	13459	42.328736310031	52
19	13498	42.330801178711	52
19	13542	42.332343242066	52
19	13834	42.806158925752	52
19	13874	42.806916137429	52
19	14065	42.810486930655	52
19	14657	44.00653700509	52
19	14778	44.321355527158	52
[...]
272	327	2.004511742891	52
272	462	2.321051912808	52
272	511	2.321872616339	2028
272	661	4	2028
272	754	4.101625236138	48
272	922	6.003171370266	52
272	999	6.320510224034	52
272	1051	6.803263951595	52
272	1119	7.441044383793	52
272	1504	10.403373761611	52
272	1557	10.404194368309	2028
272	1584	10.420428671659	2028
272	1614	10.436662975022	2028
272	1760	12	2028
272	1893	12.10331263434	48
272	2445	14.003696317907	52
272	2712	14.322825944328	52
272	3051	14.80065898931	52
272	3352	15.440100537753	52
272	4277	18.401248981375	52
272	4330	18.402069704563	2028
272	4357	18.418304066165	2028
272	4387	18.434538427974	2028
272	4542	20	2028
272	4838	22	2028
272	5199	22.104459616791	48
272	5726	24.00083423759	52
272	5930	24.322845503722	52
272	6080	24.802100376838	52
272	6185	24.802921297695	2028
272	6380	24.904618316775	48
272	6851	26.000251850294	52
272	6977	26.32133631267	52
272	7100	26.804321407212	52
272	7205	27.444822448828	52
272	8439	30.400928179716	52
272	9574	33.364702159758	52
272	20403	86.006254162049	52
272	20787	88.007550495864	52
272	20888	88.326352582691	52
272	21076	88.804399805298	52
272	21253	89.445606679687	52
272	21570	92.406698019354	52
272	21807	95.365236278828	52
273	507	2.321872616339	48
273	1551	10.404194368309	48
273	4324	18.402069704563	48
273	6181	24.802921297695	48
273	20335	86.004890746474	52
273	20559	86.109231169523	48
273	20701	88.005036948142	52
273	20853	88.324957242973	52
273	21008	88.800923455268	52
273	21185	89.442370696427	52
273	21494	92.402629626111	52
273	21793	95.362636516939	52
275	0	0	0
275	0	0	2
275	327	2.004511742891	3
275	340	2.004937742891	2
275	462	2.321051912808	3
275	475	2.321477912808	2
275	511	2.321872616339	3
275	537	2.338106616339	2
275	661	4	3
275	700	4.016234	2
275	754	4.101625236138	3
275	767	4.102019236138	2
275	922	6.003171370266	3
275	935	6.003597370266	2
275	999	6.320510224034	3
275	1012	6.320936224034	2
275	1051	6.803263951595	3
275	1064	6.803689951595	2
275	1119	7.441044383793	3
275	1132	7.441470383793	2
275	1504	10.403373761611	3
275	1517	10.403799761611	2
275	1557	10.404194368309	3
275	1581	10.420428368309	2
275	1584	10.420428671659	3
275	1611	10.436662671659	2
275	1614	10.436662975022	3
275	1641	10.452896975022	2
275	1760	12	3
275	1813	12.016234	2
275	1893	12.10331263434	3
275	1906	12.10370663434	2
275	2445	14.003696317907	3
275	2489	14.004122317907	2
275	2712	14.322825944328	3
275	2725	14.323251944328	2
275	3051	14.80065898931	3
275	3064	14.80108498931	2
275	3352	15.440100537753	3
275	3365	15.440526537753	2
275	4277	18.401248981375	3
275	4290	18.401674981375	2
275	4330	18.402069704563	3
275	4354	18.418303704563	2
275	4357	18.418304066165	3
275	4384	18.434538066165	2
275	4387	18.434538427974	3
275	4414	18.450772427974	2
275	4542	20	3
275	4568	20.016234	2
275	4838	22	3
275	5125	22.016234	2
275	5199	22.104459616791	3
275	5212	22.104853616791	2
275	5726	24.00083423759	3
275	5739	24.00126023759	2
275	5930	24.322845503722	3
275	5985	24.323271503722	2
275	6080	24.802100376838	3
275	6108	24.802526376838	2
275	6185	24.802921297695	3
275	6357	24.819155297695	2
275	6380	24.904618316775	3
275	6393	24.905012316775	2
275	6851	26.000251850294	3
275	6864	26.000677850294	2
275	6977	26.32133631267	3
275	6990	26.32176231267	2
275	7100	26.804321407212	3
275	7113	26.804747407212	2
275	7205	27.444822448828	3
275	7233	27.445248448828	2
275	8439	30.400928179716	3
275	8452	30.401354179716	2
275	9574	33.364702159758	3
275	9587	33.365128159758	2
275	20403	86.006254162049	3
275	20428	86.006680162049	2
275	20787	88.007550495864	3
275	20800	88.007976495864	2
275	20888	88.326352582691	3
275	20917	88.326778582691	2
275	21076	88.804399805298	3
275	21105	88.804825805298	2
275	21253	89.445606679687	3
275	21282	89.446032679687	2
275	21570	92.406698019354	3
275	21583	92.407124019354	2
275	21807	95.365236278828	3
275	21820	95.365662278828	2
276	0	0	1
276	258	2.003066109616	2
276	287	2.003492109616	1
276	290	2.003492256379	2
276	318	2.003886256379	1
276	321	2.003886382537	2
276	327	2.004511742891	0
276	340	2.004937742891	2
276	440	2.020120382537	1
276	462	2.321051912808	0
276	475	2.321477912808	1
276	485	2.321478616339	3
276	506	2.321872616339	1
276	511	2.321872616339	0
276	537	2.338106616339	1
276	661	4	0
276	700	4.016234	2
276	728	4.016234831423	1
276	754	4.101625236138	0
276	767	4.102019236138	1
276	912	6.00000087134	2
276	922	6.003171370266	0
276	935	6.003597370266	2
276	974	6.01623487134	1
276	999	6.320510224034	0
276	1012	6.320936224034	1
276	1051	6.803263951595	0
276	1064	6.803689951595	1
276	1119	7.441044383793	0
276	1132	7.441470383793	1
276	1222	8.000000911901	2
276	1258	8.016234911901	1
276	1402	10.000000953024	2
276	1433	10.016234953024	1
276	1504	10.403373761611	0
276	1517	10.403799761611	1
276	1528	10.403800368309	3
276	1550	10.404194368309	1
276	1557	10.404194368309	0
276	1581	10.420428368309	1
276	1584	10.420428671659	0
276	1611	10.436662671659	1
276	1614	10.436662975022	0
276	1641	10.452896975022	1
276	1760	12	0
276	1813	12.016234	2
276	1833	12.01623499464	1
276	1862	12.1018446226	2
276	1889	12.1022386226	1
276	1893	12.10331263434	0
276	1906	12.10370663434	1
276	2033	12.324027169825	2
276	2072	12.324707199284	1
276	2087	12.325102493421	2
276	2101	12.325528493421	1
276	2116	12.325772470453	2
276	2130	12.326198470453	1
276	2365	14.002878995375	2
276	2395	14.003209206185	1
276	2399	14.003209487356	2
276	2425	14.003304995375	1
276	2426	14.003304995384	2
276	2441	14.003603487356	1
276	2445	14.003696317907	0
276	2489	14.004122317907	2
276	2527	14.004124996065	1
276	2548	14.004891706688	2
276	2560	14.005317706688	1
276	2575	14.007580956813	2
276	2588	14.008006956813	1
276	2712	14.322825944328	0
276	2725	14.323251944328	1
276	2920	14.328215134598	2
276	2935	14.328352748507	1
276	2950	14.328473200553	2
276	2976	14.328899200553	1
276	3051	14.80065898931	0
276	3064	14.80108498931	1
276	3181	14.805962583754	2
276	3193	14.806388583754	1
276	3208	14.80787484418	2
276	3248	14.808646683965	1
276	3352	15.440100537753	0
276	3365	15.440526537753	1
276	3577	16.004835396142	2
276	3609	16.005261396142	1
276	3817	16.326502608184	2
276	3861	16.326928608184	1
276	4277	18.401248981375	0
276	4290	18.401674981375	1
276	4301	18.401675704563	3
276	4323	18.402069704563	1
276	4330	18.402069704563	0
276	4354	18.418303704563	1
276	4357	18.418304066165	0
276	4384	18.434538066165	1
276	4387	18.434538427974	0
276	4414	18.450772427974	1
276	4542	20	0
276	4568	20.016234	1
276	4838	22	0
276	5125	22.016234	1
276	5199	22.104459616791	0
276	5212	22.104853616791	1
276	5345	23.364458211489	2
276	5373	23.364852211489	1
276	5395	23.364959517941	2
276	5407	23.365385517941	1
276	5422	23.366698292529	2
276	5434	23.367124292529	1
276	5449	23.367143495262	2
276	5465	23.367569495262	1
276	5481	23.367977826321	2
276	5497	23.368403826321	1
276	5726	24.00083423759	0
276	5739	24.00126023759	1
276	5767	24.003079049792	2
276	5782	24.003505049792	1
276	5926	24.322830238637	2
276	5930	24.322845503722	0
276	5985	24.323271503722	1
276	6080	24.802100376838	0
276	6108	24.802526376838	1
276	6121	24.802527297695	3
276	6180	24.802921297695	1
276	6185	24.802921297695	0
276	6357	24.819155297695	1
276	6380	24.904618316775	0
276	6393	24.905012316775	1
276	6421	24.90688015824	2
276	6439	24.90733815824	1
276	6581	25.442324857114	2
276	6598	25.442708374253	1
276	6667	25.445822026741	2
276	6683	25.446216026741	1
276	6851	26.000251850294	0
276	6864	26.000677850294	1
276	6889	26.003108512197	2
276	6902	26.003534512197	1
276	6977	26.32133631267	0
276	6990	26.32176231267	1
276	7100	26.804321407212	0
276	7113	26.804747407212	1
276	7205	27.444822448828	0
276	7233	27.445248448828	2
276	7261	27.445553087972	1
276	7588	28.00348305719	2
276	7606	28.00390905719	1
276	7794	28.323245569847	2
276	7810	28.323639569847	1
276	8120	30.004523227394	2
276	8132	30.004949227394	1
276	8316	30.327607388981	2
276	8331	30.328033388981	1
276	8398	30.329734918023	2
276	8411	30.329987344379	1
276	8439	30.400928179716	0
276	8452	30.401354179716	1
276	8636	30.81031497448	2
276	8651	30.81074097448	1
276	9101	32.002935349984	2
276	9119	32.003361349984	1
276	9394	32.807265055724	2
276	9451	32.807760908993	1
276	9523	32.909043119399	2
276	9538	32.909565119399	1
276	9574	33.364702159758	0
276	9587	33.365128159758	1
276	9691	33.441468906731	2
276	9707	33.441862906731	1
276	9738	33.444406447633	2
276	9752	33.444740990041	1
276	9827	33.445987581123	2
276	9842	33.446413581123	1
276	9852	33.447874544259	2
276	9868	33.448300544259	1
276	9882	33.449505126802	2
276	9897	33.449931126802	1
276	10037	34.004166663237	2
276	10055	34.004592663237	1
276	10070	34.008110426105	2
276	10089	34.008536426105	1
276	10104	34.009514405877	2
276	10125	34.009940405877	1
276	10339	34.325991940748	2
276	10369	34.326385940748	1
276	10412	34.429534681492	2
276	10430	34.429992681492	1
276	10606	34.80662951401	2
276	10623	34.80702351401	1
276	10653	34.810221605975	2
276	10671	34.810250078333	1
276	10729	34.813203936241	2
276	10747	34.813629936241	1
276	10762	34.815771494033	2
276	10777	34.816197494033	1
276	10965	35.442152468647	2
276	10979	35.442340401509	1
276	11620	38.409534852517	2
276	11648	38.409960852517	1
276	11651	38.40996097881	2
276	11666	38.41035497881	1
276	11683	38.414109176551	2
276	11702	38.414535176551	1
276	11713	38.415886958615	2
276	11731	38.416312958615	1
276	11745	38.416970811251	2
276	11761	38.417396811251	1
276	11818	38.511468971979	2
276	11834	38.511926971979	1
276	12093	40.001419090017	2
276	12111	40.001845090017	1
276	12126	40.002751136869	2
276	12147	40.003177136869	1
276	12162	40.003744827169	2
276	12183	40.004170827169	1
276	12404	40.329458264895	2
276	12421	40.329852264895	1
276	12488	40.330838205106	2
276	12502	40.331232205106	1
276	12577	40.435986148549	2
276	12596	40.436316148549	1
276	12681	40.803266459003	2
276	12696	40.803275633491	1
276	12762	40.810699246824	2
276	12794	40.811125246824	1
276	12797	40.811125357575	2
276	12814	40.811519357575	1
276	12889	40.90679987333	2
276	12905	40.90719387333	1
276	13123	42.002991261884	2
276	13156	42.003417261884	1
276	13321	42.322889603737	2
276	13339	42.323315603737	1
276	13374	42.324554116179	2
276	13390	42.324813096581	1
276	13415	42.326766167495	2
276	13430	42.327192167495	1
276	13563	42.332344006202	2
276	13607	42.332947291638	1
276	13670	42.433508333575	2
276	13688	42.433966333575	1
276	13788	42.803869438684	2
276	13806	42.804295438684	1
276	13901	42.806948132134	2
276	14027	42.808139293933	1
276	14126	42.81272491024	2
276	14148	42.81315091024	1
276	14320	42.849555337916	2
276	14336	42.849885126654	1
276	14372	42.907374220403	2
276	14390	42.907800220403	1
276	14405	42.910420108293	2
276	14423	42.910878108293	1
276	14527	43.445235120494	2
276	14541	43.445481030381	1
276	14683	44.007697050768	2
276	14701	44.008123050768	1
276	14875	44.323490484312	2
276	14893	44.323916484312	1
276	14912	44.324257088241	2
276	14955	44.324724227553	1
276	14964	44.325140180013	2
276	14994	44.325566180013	1
276	15190	44.362448658729	2
276	15206	44.362778447467	1
276	15374	46.001986476325	2
276	15392	46.002412476325	1
276	15452	46.327157533152	2
276	15470	46.327583533152	1
276	15484	46.329487618033	2
276	15499	46.329913618033	1
276	15579	46.404987357971	2
276	15594	46.405253472188	1
276	15667	46.807283386307	2
276	15685	46.807709386307	1
276	15699	46.809830269899	2
276	15714	46.810256269899	1
276	15810	47.445688969679	2
276	15828	47.446114969679	1
276	15842	47.448254580251	2
276	15857	47.448680580251	1
276	16050	49.36619289797	2
276	16064	49.366347608541	1
276	16079	49.366354236509	2
276	16091	49.36661889797	1
276	16121	49.368261753942	2
276	16160	49.368687753942	1
276	16161	49.368687770182	2
276	16179	49.369081770182	1
276	16195	49.369312082954	2
276	16225	49.369706082954	1
276	16278	49.385940890191	2
276	16311	49.402174890191	1
276	16376	49.502175289598	2
276	16408	49.518409289598	1
276	16567	50.006595263849	2
276	16608	50.007021263849	1
276	16636	50.007834915953	2
276	16672	50.008260915953	1
276	16673	50.008260926874	2
276	16690	50.008654926874	1
276	16706	50.009822290634	2
276	16732	50.010216290634	1
276	16776	50.026451059662	2
276	16798	50.042685059662	1
276	16857	50.402358681694	2
276	16875	50.402784681694	1
276	16892	50.405404824009	2
276	16910	50.405830824009	1
276	17061	52.016235243454	2
276	17081	52.032469243454	1
276	17203	53.364154825549	2
276	17221	53.364580825549	1
276	17233	53.367103641285	2
276	17251	53.367529641285	1
276	17353	54.016235179582	2
276	17374	54.032469179582	1
276	17535	56.016235124333	2
276	17557	56.032469124333	1
276	17726	58.016235077381	2
276	17749	58.032469077381	1
276	17912	60.016235033168	2
276	17934	60.032469033168	1
276	18064	62.000000984956	2
276	18093	62.016234984956	1
276	18094	62.0162349946	2
276	18115	62.0324689946	1
276	18253	64.000000938668	2
276	18282	64.016234938668	1
276	18283	64.016234962338	2
276	18306	64.032468962338	1
276	18440	66.000000892424	2
276	18468	66.016234892424	1
276	18470	66.01623493672	2
276	18493	66.03246893672	1
276	18624	68.000000846229	2
276	18657	68.016234846229	1
276	18660	68.016234917704	2
276	18682	68.032468917704	1
276	18812	70.000000800092	2
276	18838	70.016234800092	1
276	18841	70.016234904953	2
276	18863	70.032468904953	1
276	19001	72.000000754025	2
276	19027	72.016234754025	1
276	19031	72.016234897994	2
276	19053	72.032468897994	1
276	19184	74.000000708041	2
276	19210	74.016234708041	1
276	19213	74.016234896368	2
276	19235	74.032468896368	1
276	19366	76.000000662157	2
276	19391	76.016234662157	1
276	19394	76.016234899708	2
276	19416	76.032468899708	1
276	19548	78.000000616395	2
276	19572	78.016234616395	1
276	19577	78.016234907751	2
276	19599	78.032468907751	1
276	19731	80.000000570785	2
276	19753	80.016234570785	1
276	19760	80.016234920319	2
276	19782	80.032468920319	1
276	19913	82.000000525367	2
276	19935	82.016234525367	1
276	19943	82.016234937294	2
276	19965	82.032468937294	1
276	20095	84.000000480194	2
276	20116	84.016234480194	1
276	20125	84.01623495858	2
276	20141	84.03246895858	1
276	20161	84.118885403128	2
276	20179	84.119279403128	1
276	20305	86.004464746474	3
276	20334	86.004890746474	1
276	20352	86.004891484459	2
276	20377	86.005285484459	1
276	20378	86.005285487693	3
276	20403	86.006254162049	2
276	20403	86.006254162049	0
276	20428	86.006680162049	2
276	20512	86.021519487693	1
276	20534	86.108837169523	3
276	20558	86.109231169523	1
276	20685	88.004610948142	3
276	20700	88.005036948142	1
276	20726	88.005805708741	2
276	20744	88.006231708741	1
276	20760	88.006843160019	2
276	20778	88.007269160019	1
276	20787	88.007550495864	0
276	20800	88.007976495864	1
276	20837	88.324531242973	3
276	20852	88.324957242973	1
276	20878	88.326006627779	2
276	20888	88.326352582691	0
276	20917	88.326778582691	1
276	20936	88.328068859834	2
276	20954	88.328494859834	1
276	20992	88.800497455268	3
276	21007	88.800923455268	1
276	21033	88.803809629188	2
276	21051	88.804235629188	1
276	21066	88.804283894256	2
276	21076	88.804399805298	0
276	21105	88.804825805298	1
276	21169	89.441944696427	3
276	21184	89.442370696427	1
276	21210	89.442384700798	2
276	21228	89.442810700798	1
276	21242	89.44537333576	2
276	21253	89.445606679687	0
276	21282	89.446032679687	1
276	21481	92.402203626111	3
276	21493	92.402629626111	1
276	21519	92.405873414386	2
276	21560	92.406481654783	1
276	21570	92.406698019354	0
276	21583	92.407124019354	1
276	21777	95.362210516939	3
276	21792	95.362636516939	1
276	21807	95.365236278828	0
276	21820	95.365662278828	1
276	21842	95.367592705844	2
276	21860	95.368018705844	1
276	21874	95.369934604766	2
276	21889	95.370360604766	1
277	327	2.004511742891	1
277	328	2.004511742891	2
277	340	2.004937742891	1
277	340	2.004937742891	0
277	462	2.321051912808	1
277	463	2.321051912808	2
277	475	2.321477912808	1
277	475	2.321477912808	0
277	511	2.321872616339	1
277	512	2.321872616339	2
277	537	2.338106616339	1
277	537	2.338106616339	0
277	661	4	1
277	664	4	2
277	700	4.016234	1
277	700	4.016234	0
277	754	4.101625236138	1
277	755	4.101625236138	2
277	767	4.102019236138	1
277	767	4.102019236138	0
277	922	6.003171370266	1
277	923	6.003171370266	2
277	935	6.003597370266	1
277	935	6.003597370266	0
277	999	6.320510224034	1
277	1000	6.320510224034	2
277	1012	6.320936224034	1
277	1012	6.320936224034	0
277	1051	6.803263951595	1
277	1052	6.803263951595	2
277	1064	6.803689951595	1
277	1064	6.803689951595	0
277	1119	7.441044383793	1
277	1120	7.441044383793	2
277	1132	7.441470383793	1
277	1132	7.441470383793	0
277	1504	10.403373761611	1
277	1505	10.403373761611	2
277	1517	10.403799761611	1
277	1517	10.403799761611	0
277	1557	10.404194368309	1
277	1558	10.404194368309	2
277	1581	10.420428368309	1
277	1581	10.420428368309	0
277	1584	10.420428671659	1
277	1586	10.420428671659	2
277	1611	10.436662671659	1
277	1611	10.436662671659	0
277	1614	10.436662975022	1
277	1616	10.436662975022	2
277	1641	10.452896975022	1
277	1641	10.452896975022	0
277	1760	12	1
277	1762	12	2
277	1813	12.016234	1
277	1813	12.016234	0
277	1893	12.10331263434	1
277	1894	12.10331263434	2
277	1906	12.10370663434	1
277	1906	12.10370663434	0
277	2445	14.003696317907	1
277	2446	14.003696317907	2
277	2489	14.004122317907	1
277	2489	14.004122317907	0
277	2712	14.322825944328	1
277	2713	14.322825944328	2
277	2725	14.323251944328	1
277	2725	14.323251944328	0
277	3051	14.80065898931	1
277	3052	14.80065898931	2
277	3064	14.80108498931	1
277	3064	14.80108498931	0
277	3352	15.440100537753	1
277	3353	15.440100537753	2
277	3365	15.440526537753	1
277	3365	15.440526537753	0
277	4277	18.401248981375	1
277	4278	18.401248981375	2
277	4290	18.401674981375	1
277	4290	18.401674981375	0
277	4330	18.402069704563	1
277	4331	18.402069704563	2
277	4354	18.418303704563	1
277	4354	18.418303704563	0
277	4357	18.418304066165	1
277	4359	18.418304066165	2
277	4384	18.434538066165	1
277	4384	18.434538066165	0
277	4387	18.434538427974	1
277	4389	18.434538427974	2
277	4414	18.450772427974	1
277	4414	18.450772427974	0
277	4542	20	1
277	4544	20	2
277	4568	20.016234	1
277	4568	20.016234	0
277	4838	22	1
277	4839	22	2
277	5125	22.016234	1
277	5125	22.016234	0
277	5199	22.104459616791	1
277	5200	22.104459616791	2
277	5212	22.104853616791	1
277	5212	22.104853616791	0
277	5726	24.00083423759	1
277	5727	24.00083423759	2
277	5739	24.00126023759	1
277	5739	24.00126023759	0
277	5930	24.322845503722	1
277	5931	24.322845503722	2
277	5985	24.323271503722	1
277	5985	24.323271503722	0
277	6080	24.802100376838	1
277	6081	24.802100376838	2
277	6108	24.802526376838	1
277	6108	24.802526376838	0
277	6185	24.802921297695	1
277	6186	24.802921297695	2
277	6357	24.819155297695	1
277	6357	24.819155297695	0
277	6380	24.904618316775	1
277	6381	24.904618316775	2
277	6393	24.905012316775	1
277	6393	24.905012316775	0
277	6851	26.000251850294	1
277	6852	26.000251850294	2
277	6864	26.000677850294	1
277	6864	26.000677850294	0
277	6977	26.32133631267	1
277	6978	26.32133631267	2
277	6990	26.32176231267	1
277	6990	26.32176231267	0
277	7100	26.804321407212	1
277	7101	26.804321407212	2
277	7113	26.804747407212	1
277	7113	26.804747407212	0
277	7205	27.444822448828	1
277	7206	27.444822448828	2
277	7233	27.445248448828	1
277	7233	27.445248448828	0
277	8439	30.400928179716	1
277	8440	30.400928179716	2
277	8452	30.401354179716	1
277	8452	30.401354179716	0
277	9574	33.364702159758	1
277	9575	33.364702159758	2
277	9587	33.365128159758	1
277	9587	33.365128159758	0
277	20403	86.006254162049	1
277	20404	86.006254162049	2
277	20428	86.006680162049	1
277	20428	86.006680162049	0
277	20787	88.007550495864	1
277	20788	88.007550495864	2
277	20800	88.007976495864	1
277	20800	88.007976495864	0
277	20888	88.326352582691	1
277	20889	88.326352582691	2
277	20917	88.326778582691	1
277	20917	88.326778582691	0
277	21076	88.804399805298	1
277	21077	88.804399805298	2
277	21105	88.804825805298	1
277	21105	88.804825805298	0
277	21253	89.445606679687	1
277	21254	89.445606679687	2
277	21282	89.446032679687	1
277	21282	89.446032679687	0
277	21570	92.406698019354	1
277	21571	92.406698019354	2
277	21583	92.407124019354	1
277	21583	92.407124019354	0
277	21807	95.365236278828	1
277	21808	95.365236278828	2
277	21820	95.365662278828	1
277	21820	95.365662278828	0
